#
# Copyright 2016 National Renewable Energy Laboratory
#
# Licensed under the Apache License, Version 2.0 (the "License");
# you may not use this file except in compliance with the License.
# You may obtain a copy of the License at
#
#     http://www.apache.org/licenses/LICENSE-2.0
#
# Unless required by applicable law or agreed to in writing, software
# distributed under the License is distributed on an "AS IS" BASIS,
# WITHOUT WARRANTIES OR CONDITIONS OF ANY KIND, either express or implied.
# See the License for the specific language governing permissions and
# limitations under the License.
#

generate_f90_types(src/Conv_Radiation.txt Conv_Radiation_Types.f90)
generate_f90_types(src/Current.txt Current_Types.f90)
generate_f90_types(src/HydroDyn.txt HydroDyn_Types.f90)
generate_f90_types(src/Morison.txt Morison_Types.f90)
generate_f90_types(src/SS_Radiation.txt SS_Radiation_Types.f90)
generate_f90_types(src/SS_Excitation.txt SS_Excitation_Types.f90)
generate_f90_types(src/WAMIT.txt WAMIT_Types.f90)
generate_f90_types(src/WAMIT2.txt WAMIT2_Types.f90)
generate_f90_types(src/Waves.txt Waves_Types.f90)
generate_f90_types(src/Waves2.txt Waves2_Types.f90)

set(HYDRODYN_SOURCES
  src/Conv_Radiation.f90
  src/Current.f90
  src/HydroDyn.f90
  src/HydroDyn_Input.f90
  src/HydroDyn_Output.f90
  src/Morison.f90
  src/Morison_Output.f90
  src/SS_Radiation.f90
  src/SS_Excitation.f90
  src/UserWaves.f90
  src/WAMIT.f90
  src/WAMIT2.f90
  src/WAMIT2_Output.f90
  src/WAMIT_Interp.f90
  src/WAMIT_Output.f90
  src/Waves.f90
  src/Waves2.f90
  src/Waves2_Output.f90

  # Autogenerated files
  Conv_Radiation_Types.f90
  Current_Types.f90
  HydroDyn_Types.f90
  Morison_Types.f90
  SS_Radiation_Types.f90
  SS_Excitation_Types.f90
  WAMIT_Types.f90
  WAMIT2_Types.f90
  Waves_Types.f90
  Waves2_Types.f90
  )

add_library(hydrodynlib ${HYDRODYN_SOURCES})
target_link_libraries(hydrodynlib nwtclibs)

add_executable(hydrodyn_driver src/HydroDyn_DriverCode.f90)
target_link_libraries(hydrodyn_driver hydrodynlib nwtclibs versioninfolib)

#add_executable(ss_radiation
#  src/SS_Radiation_DriverCode.f90)
#target_link_libraries(ss_radiation hydrodynlib nwtclibs)

install(TARGETS hydrodynlib hydrodyn_driver
  EXPORT "${CMAKE_PROJECT_NAME}Libraries"
  RUNTIME DESTINATION bin
  LIBRARY DESTINATION lib
  ARCHIVE DESTINATION lib)
