
generate_f90_types(src/ElastoDyn_Registry.txt ElastoDyn_Types.f90)

set(ED_SOURCES
  src/ElastoDyn.f90
  src/ElastoDyn_IO.f90
  src/ED_UserSubs.f90

  # Autogenerated files
  ElastoDyn_Types.f90
  )

add_library(elastodynlib ${ED_SOURCES})
target_link_libraries(elastodynlib servodynlib nwtclibs)
