---------TurbSim v2.00.* Input File------------------------
for Certification Test #5 (SMOOTH Spectrum, formatted FF files, Coherent Structures).
---------Runtime Options-----------------------------------
True          Echo            - Echo input data to <RootName>.ech (flag)
4433456       RandSeed1       - First random seed  (-2147483648 to 2147483647)
"RanLux"      RandSeed2       - Second random seed (-2147483648 to 2147483647) for intrinsic pRNG, or an alternative pRNG: "RanLux" or "RNSNLW"
True          WrBHHTP         - Output hub-height turbulence parameters in binary form?  (Generates RootName.bin)
False         WrFHHTP         - Output hub-height turbulence parameters in formatted form?  (Generates RootName.dat)
False         WrADHH          - Output hub-height time-series data in AeroDyn form?  (Generates RootName.hh)
True          WrADFF          - Output full-field time-series data in TurbSim/AeroDyn form? (Generates RootName.bts)
True          WrBLFF          - Output full-field time-series data in BLADED/AeroDyn form?  (Generates RootName.wnd)
False         WrADTWR         - Output tower time-series data? (Generates RootName.twr)
False         WrFMTFF         - Output full-field time-series data in formatted (readable) form?  (Generates RootName.u, RootName.v, RootName.w)
False         WrACT           - Output coherent turbulence time steps in AeroDyn form? (Generates RootName.cts)
False         Clockwise       - Clockwise rotation looking downwind? (used only for full-field binary files - not necessary for AeroDyn)
          0   ScaleIEC        - Scale IEC turbulence models to exact target standard deviation? [0=no additional scaling; 1=use hub scale uniformly; 2=use individual scales]

--------Turbine/Model Specifications-----------------------
          5   NumGrid_Z       - Vertical grid-point matrix dimension
          5   NumGrid_Y       - Horizontal grid-point matrix dimension
       0.05   TimeStep        - Time step [seconds]
        600   AnalysisTime    - Length of analysis time series [seconds] (program will add time if necessary: AnalysisTime = MAX(AnalysisTime, UsableTime+GridWidth/MeanHHWS) )
"ALL"         UsableTime      - Usable length of output time series [seconds] (program will add GridWidth/MeanHHWS seconds unless UsableTime is "ALL")
         84   HubHt           - Hub height [m] (should be > 0.5*GridHeight)
         70   GridHeight      - Grid height [m]
         70   GridWidth       - Grid width [m] (should be >= 2*(RotorRadius+ShaftLength))
          0   VFlowAng        - Vertical mean flow (uptilt) angle [degrees]
          0   HFlowAng        - Horizontal mean flow (skew) angle [degrees]

--------Meteorological Boundary Conditions-------------------
"TIMESR"      TurbModel       - Turbulence model ("IECKAI","IECVKM","GP_LLJ","NWTCUP","SMOOTH","WF_UPW","WF_07D","WF_14D","TIDAL","API","USRINP","TIMESR", or "NONE")
"UserTimeSeries/TimeSeries_smooth.inp" "UserTimeSeries/20140113_174000.inp"      UserFile        - Name of the file that contains inputs for user-defined spectra or time series inputs (used only for "USRINP" and "TIMESR" models)
          1   IECstandard     - Number of IEC 61400-x standard (x=1,2, or 3 with optional 61400-1 edition number (i.e. "1-Ed2") )
"A"           IECturbc        - IEC turbulence characteristic ("A", "B", "C" or the turbulence intensity in percent) ("KHTEST" option with NWTCUP model, not used for other models)
"NTM"         IEC_WindType    - IEC turbulence type ("NTM"=normal, "xETM"=extreme turbulence, "xEWM1"=extreme 1-year wind, "xEWM50"=extreme 50-year wind, where x=wind turbine class 1, 2, or 3)
"default"     ETMc            - IEC Extreme Turbulence Model "c" parameter [m/s]
"default"     WindProfileType - Velocity profile type ("JET";"LOG"=logarithmic;"PL"=power law;"H2L"=Log law for TIDAL spectral model;"API"=API profile;"IEC"=PL on rotor disk, LOG elsewhere; or "default")
         84   RefHt           - Height of the reference velocity (URef) [m]
         17   URef            - Mean (total) velocity at the reference height [m/s] (or "default" for JET velocity profile)
        350   ZJetMax         - Jet height [m] (used only for JET velocity profile, valid 70-490 m)
      1.527   PLExp           - Power law exponent [-] (or "default")
"default"     Z0              - Surface roughness length [m] (or "default")

--------Non-IEC Meteorological Boundary Conditions------------
"default"     Latitude        - Site latitude [degrees] (or "default")
       0.05   RICH_NO         - Gradient Richardson number
"default"     UStar           - Friction or shear velocity [m/s] (or "default")
"default"     ZI              - Mixing layer depth [m] (or "default")
none "default"     PC_UW           - Hub mean u'w' Reynolds stress (or "default" or "none")
none "default"     PC_UV           - Hub mean u'v' Reynolds stress (or "default" or "none")
none "default"     PC_VW           - Hub mean v'w' Reynolds stress (or "default" or "none")
"default"     InCDec1         - u-component coherence parameters (e.g. "10.0  0.3e-3" in quotes) (or "default")
"default"     InCDec2         - v-component coherence parameters (e.g. "10.0  0.3e-3" in quotes) (or "default")
"default"     InCDec3         - w-component coherence parameters (e.g. "10.0  0.3e-3" in quotes) (or "default")
"default"     CohExp          - Coherence exponent (or "default")

--------Coherent Turbulence Scaling Parameters-------------------
".\EventData"    CTEventPath     - Name of the path where event data files are located
"les"         CTEventFile     - Type of event files ("LES", "DNS", or "RANDOM")
true          Randomize       - Randomize the disturbance scale and locations? (true/false)
          1   DistScl         - Disturbance scale (ratio of event dataset height to rotor disk). (Ignored when Randomize = true.)
        0.5   CTLy            - Fractional location of tower centerline from right (looking downwind) to left side of the dataset. (Ignored when Randomize = true.)
        0.5   CTLz            - Fractional location of hub height from the bottom of the dataset. (Ignored when Randomize = true.)
         10   CTStartTime     - Minimum start time for coherent structures in RootName.cts [seconds]

====================================================
! NOTE: Do not add or remove any lines in this file!
====================================================