---------TurbSim v2.00.* Profile Input File------------------------
Made up profiles
-------- User-Defined Profiles (Used only with USR wind profile or USRVKM spectral model) -------------------
5               NumUSRz        - Number of Heights
1               StdScale1      - u-component scaling factor for the input standard deviation (USRVKM only)
1               StdScale2      - v-component scaling factor for the input standard deviation (USRVKM only)
1               StdScale3      - w-component scaling factor for the input standard deviation (USRVKM only)
...................................................................................
Height    Wind Speed       Wind --Direction--
 (m)        (m/s)       (deg, cntr-clockwise )
-----------------------------------------------------------------------------------
15.0           3            00
25.0           4            00
35.0           5            00
45.0           6            00
55.0           7            00
