------- AERODYN v15 for OpenFAST INPUT FILE -----------------------------------------------
Elliptical wing test case for OLAF free vortex wake mdoule in AD15
======  General Options  ============================================================================
False         Echo               - Echo the input to "<rootname>.AD.ech"?  (flag)
"default"     DTAero             - Time interval for aerodynamic calculations {or "default"} (s)
          3   WakeMod            - Type of wake/induction model (switch) {0=none, 1=BEMT, 2=DBEMT, 3=OLAF} [WakeMod cannot be 2 or 3 when linearizing]
          1   AFAeroMod          - Type of blade airfoil aerodynamics model (switch) {1=steady model, 2=Beddoes-Leishman unsteady model} [AFAeroMod must be 1 when linearizing]
          0   TwrPotent          - Type tower influence on wind based on potential flow around the tower (switch) {0=none, 1=baseline potential flow, 2=potential flow with Bak correction}
          0   TwrShadow          - Calculate tower influence on wind based on downstream tower shadow (switch) {0=none, 1=Powles model, 2=Eames model}
False         TwrAero            - Calculate tower aerodynamic loads? (flag)
False         FrozenWake         - Assume frozen wake during linearization? (flag) [used only when WakeMod=1 and when linearizing]
False         CavitCheck         - Perform cavitation check? (flag) [AFAeroMod must be 1 when CavitCheck=true]
False         CompAA             - Flag to compute AeroAcoustics calculation [used only when WakeMod = 1 or 2]
"unused"      AA_InputFile       - AeroAcoustics input file [used only when CompAA=true]
======  Environmental Conditions  ===================================================================
      1.225   AirDens            - Air density (kg/m^3)
 1.4639E-05   KinVisc            - Kinematic air viscosity (m^2/s)
        335   SpdSound           - Speed of sound (m/s)
     103500   Patm               - Atmospheric pressure (Pa) [used only when CavitCheck=True]
       1700   Pvap               - Vapour pressure of fluid (Pa) [used only when CavitCheck=True]
        0.5   FluidDepth         - Water depth above mid-hub height (m) [used only when CavitCheck=True]
======  Blade-Element/Momentum Theory Options  ====================================================== [unused when WakeMod=0 or 3]
          2   SkewMod            - Type of skewed-wake correction model (switch) {1=uncoupled, 2=Pitt/Peters, 3=coupled} [unused when WakeMod=0 or 3]
"default"     SkewModFactor      - Constant used in Pitt/Peters skewed wake model {or "default" is 15/32*pi} (-) [used only when SkewMod=2; unused when WakeMod=0 or 3]
True          TipLoss            - Use the Prandtl tip-loss model? (flag) [unused when WakeMod=0 or 3]
True          HubLoss            - Use the Prandtl hub-loss model? (flag) [unused when WakeMod=0 or 3]
True          TanInd             - Include tangential induction in BEMT calculations? (flag) [unused when WakeMod=0 or 3]
False         AIDrag             - Include the drag term in the axial-induction calculation? (flag) [unused when WakeMod=0 or 3]
False         TIDrag             - Include the drag term in the tangential-induction calculation? (flag) [unused when WakeMod=0,3 or TanInd=FALSE]
"Default"     IndToler           - Convergence tolerance for BEMT nonlinear solve residual equation {or "default"} (-) [unused when WakeMod=0 or 3]
        100   MaxIter            - Maximum number of iteration steps (-) [unused when WakeMod=0]
======  Dynamic Blade-Element/Momentum Theory Options  ============================================== [used only when WakeMod=2]
          2   DBEMT_Mod          - Type of dynamic BEMT (DBEMT) model {1=constant tau1, 2=time-dependent tau1} (-) [used only when WakeMod=2]
          2   tau1_const         - Time constant for DBEMT (s) [used only when WakeMod=2 and DBEMT_Mod=1]
======  OLAF -- cOnvecting LAgrangian Filaments (Free Vortex Wake) Theory Options  ================== [used only when WakeMod=3]
"Elliptic_OLAF.dat"    OLAFInputFileName  - Input file for OLAF [used only when WakeMod=3]
======  Beddoes-Leishman Unsteady Airfoil Aerodynamics Options  ===================================== [used only when AFAeroMod=2]
          3   UAMod              - Unsteady Aero Model Switch (switch) {1=Baseline model (Original), 2=Gonzalez's variant (changes in Cn,Cc,Cm), 3=Minnema/Pierce variant (changes in Cc and Cm)} [used only when AFAeroMod=2]
True          FLookup            - Flag to indicate whether a lookup for f' will be calculated (TRUE) or whether best-fit exponential equations will be used (FALSE); if FALSE S1-S4 must be provided in airfoil input files (flag) [used only when AFAeroMod=2]
======  Airfoil Information =========================================================================
          1   AFTabMod           - Interpolation method for multiple airfoil tables {1=1D interpolation on AoA (first table only); 2=2D interpolation on AoA and Re; 3=2D interpolation on AoA and UserProp} (-)
          1   InCol_Alfa         - The column in the airfoil tables that contains the angle of attack (-)
          2   InCol_Cl           - The column in the airfoil tables that contains the lift coefficient (-)
          3   InCol_Cd           - The column in the airfoil tables that contains the drag coefficient (-)
          4   InCol_Cm           - The column in the airfoil tables that contains the pitching-moment coefficient; use zero if there is no Cm column (-)
          0   InCol_Cpmin        - The column in the airfoil tables that contains the Cpmin coefficient; use zero if there is no Cpmin column (-)
          1   NumAFfiles         - Number of airfoil files used (-)
"Polar2PiAlpha_AD15.dat"    AFNames            - Airfoil file names (NumAFfiles lines) (quoted strings)
======  Rotor/Blade Properties  =====================================================================
True          UseBlCm            - Include aerodynamic pitching moment in calculations?  (flag)
"Elliptic_AD15_blade_40_cos.dat"    ADBlFile(1)        - Name of file containing distributed aerodynamic properties for Blade #1 (-)
"Elliptic_AD15_blade_40_dummy.dat"    ADBlFile(2)        - Name of file containing distributed aerodynamic properties for Blade #2 (-) [unused if NumBl < 2]
"Elliptic_AD15_blade_40_dummy.dat"    ADBlFile(3)        - Name of file containing distributed aerodynamic properties for Blade #3 (-) [unused if NumBl < 3]
======  Tower Influence and Aerodynamics ============================================================= [used only when TwrPotent/=0, TwrShadow/=0, or TwrAero=True]
          7   NumTwrNds         - Number of tower nodes used in the analysis  (-) [used only when TwrPotent/=0, TwrShadow/=0, or TwrAero=True]
TwrElev        TwrDiam        TwrCd          TwrTI (used only with TwrShadow=2)
(m)              (m)           (-)            (-)
0.0000000E+00  1.0000000E+01  1.0000000E+00  1.0000000E-01
2.3330000E+01  9.3300000E+00  1.0000000E+00  1.0000000E-01
4.6670000E+01  8.6700000E+00  1.0000000E+00  1.0000000E-01
7.0000000E+01  8.0000000E+00  1.0000000E+00  1.0000000E-01
9.3330000E+01  7.3300000E+00  1.0000000E+00  1.0000000E-01
1.1667000E+02  6.6700000E+00  1.0000000E+00  1.0000000E-01
1.4000000E+02  6.0000000E+00  1.0000000E+00  1.0000000E-01
======  Outputs  ====================================================================================
False         SumPrint            - Generate a summary file listing input options and interpolated properties to "<rootname>.AD.sum"?  (flag)
          0   NBlOuts             - Number of blade node outputs [0 - 9] (-)
          1   BlOutNd             - Blade nodes whose values will be output  (-)
          0   NTwOuts             - Number of tower node outputs [0 - 9]  (-)
          1   TwOutNd             - Tower nodes whose values will be output  (-)
              OutList             - The next line(s) contains a list of output parameters.  See OutListParameters.xlsx for a listing of available output channels, (-)
"RtTSR"                                                                    
"RtVAvgxh"                                                                 
"RtVAvgyh"                                                                 
"RtVAvgzh"                                                                 
"RtSkew"                                                                   
"RtAeroFxh"                                                                
"RtAeroFyh"                                                                
"RtAeroFzh"                                                                
"RtAeroMxh"                                                                
"RtAeroMyh"                                                                
"RtAeroMzh"                                                                
"RtAeroPwr"                                                                
"RtAeroCp"                                                                 
"RtAeroCq"                                                                 
"RtAeroCt"                                                                 
END of input file (the word "END" must appear in the first 3 columns of this last OutList line)
====== Outputs for all blade stations (same ending as above for B1N1.... =========================== [optional section]
   1              BldNd_BladesOut     - Number of blades to output all node information at.  Up to number of blades on turbine. (-)
   "All"          BldNd_BlOutNd       - Future feature will allow selecting a portion of the nodes to output.  Not implemented yet. (-)
                  OutListAD             - The next line(s) contains a list of output parameters.  See OutListParameters.xlsx for a listing of available output channels, (-)
Fx
Fy
Vx
Vy
VUndx
VUndy
VUndz
STVx
STVy
STVz
Vrel
TnInd
AxInd
Theta
Phi
Vindx
Vindy
Alpha
Gam
Fn
Ft
Cl
Cd
Cm
Cx
Cy
Cn
Ct
Fl
Fd
Mm
END of input file (the word "END" must appear in the first 3 columns of this last OutList line)
---------------------------------------------------------------------------------------
