[submodule "reg_tests/r-test"]
	path = reg_tests/r-test
	url = https://github.com/OpenFAST/r-test-5.git
	shallow = true
