[submodule "reg_tests/r-test"]
	path = reg_tests/r-test
	url = https://github.com/OpenFAST/r-test.git