[submodule "Utilities/MATLAB_Toolbox"]
	path = Utilities/MATLAB_Toolbox
	url = https://github.com/NWTC/MATLAB_Toolbox
[submodule "subs/ExtPtfm"]
	path = subs/ExtPtfm
	url = https://github.com/NWTC/ExtPtfm
[submodule "subs/NWTC_Library"]
	path = subs/NWTC_Library
	url = https://github.com/NWTC/NWTC_Library
[submodule "subs/AeroDyn"]
	path = subs/AeroDyn
	url = https://github.com/NWTC/AeroDyn
[submodule "subs/ServoDyn"]
	path = subs/ServoDyn
	url = https://github.com/NWTC/ServoDyn
[submodule "subs/BeamDyn"]
	path = subs/BeamDyn
	url = https://github.com/NWTC/BeamDyn
