ArcFiles.txt
ArcWin.txt
Archive.bat

ChangeLog.txt
Disclaimer.txt
license.txt
Notice.txt

Documentation\63217.pdf
Documentation\AeroDynMesh.pdf

Compiling\makefile_ADdriver
Compiling\Visual Studio 2013\AeroDyn_Driver\AeroDyn_Driver.vfproj
Compiling\Visual Studio 2013\AeroDyn_Driver\RunRegistry.bat

CertTest\Test01_UAE.dvr
CertTest\Test01_UAE_AeroDyn.dat
CertTest\Test01_UAE_AeroDyn_blade.dat
CertTest\Airfoils\UAE_VI\*

Source\AeroDyn_Driver.f90
Source\AeroDyn_Driver_Registry.txt
Source\AeroDyn_Driver_Subs.f90
Source\AeroDyn_Driver_Types.f90

Source\dependencies\FAST_SourceFiles.txt

Source\dependencies\AeroDyn\AeroDyn.f90
Source\dependencies\AeroDyn\AeroDyn_IO.f90
Source\dependencies\AeroDyn\AeroDyn_Types.f90
Source\dependencies\AeroDyn\AeroDyn_Registry.txt
Source\dependencies\Airfoil_Info\AirfoilInfo.f90
Source\dependencies\Airfoil_Info\AirfoilInfo_Registry.txt
Source\dependencies\Airfoil_Info\AirfoilInfo_Types.f90
Source\dependencies\BEMT\BEMT.f90
Source\dependencies\BEMT\BEMT_Registry.txt
Source\dependencies\BEMT\BEMT_Types.f90
Source\dependencies\BEMT\BEMTCoupled.f90
Source\dependencies\BEMT\BEMTUncoupled.f90
Source\dependencies\BEMT\BladeElement.f90
Source\dependencies\BEMT\Brent.f90
Source\dependencies\BEMT\fmin_fcn.f90
Source\dependencies\BEMT\mod_root1dim.f90
Source\dependencies\Netlib\minpack\nwtc_bemt_minpack.f90
Source\dependencies\UnsteadyAero\UnsteadyAero.f90
Source\dependencies\UnsteadyAero\UnsteadyAero_Registry.txt
Source\dependencies\UnsteadyAero\UnsteadyAero_Types.f90

Source\dependencies\NWTC_Library\*
Source\dependencies\NetLib\dierckx_fitpack.f
Source\dependencies\NetLib\NWTC_FitPack.f90
Source\dependencies\NetLib\NWTC_LAPACK.f90
