ArcFiles.txt
Archive.bat
ChangeLog.txt
Disclaimer.txt
RunTurbSim.pl
TurbSim_AD.ctp
TurbSim.exe
TurbSim.inp
TurbSim.pdf
TurbSim64.exe
TurbSimOverview.pdf

Source\BlankModVKM.f90
Source\FFTMod.f90
Source\Modules.f90
Source\SetVersion.f90
Source\TSsubs.f90
Source\TurbSim.f90
Source\NetLib\FFTPACK\FFTPACK.f
Source\NetLib\LAPACK\LAPACK_copying.txt
Source\NetLib\LAPACK\spptrf.f
Source\NetLib\LAPACK\BLAS\BLAS2.f
Source\NetLib\LAPACK\BLAS\sdot.f
Source\NetLib\LAPACK\BLAS\sscal.f
Source\NetLib\LAPACK\BLAS\xerbla.f
Source\RNG\RanLux.f90

Test\Bell.txt
Test\CertTest.bat
Test\DateTime.exe
Test\GPLLJ.inp
Test\Kaimal.inp
Test\Kaimal_15.inp
Test\KHtest.inp  
Test\smooth.inp
Test\Update.bat
Test\vonKarm.inp
Test\vonKarm_15.inp

Test\CompareBTSfiles.m
Test\CompareCTSfiles.m
Test\CompareFFtxtFiles.m
Test\CompareHHfiles.m
Test\CompareWNDfiles.m
Test\loadColumnData.m
Test\loadFFtxt.m
Test\readBLgrid.m
Test\readCTSfile.m
Test\readHHbin.m
Test\readTSgrid.m

Test\EventData\Event00000.dat
Test\EventData\Event01917.dat
Test\EventData\Event02515.dat
Test\EventData\Event02800.dat
Test\EventData\Event02893.dat
Test\EventData\Event03167.dat
Test\EventData\Event03219.dat
Test\EventData\Event03326.dat
Test\EventData\Event03384.dat
Test\EventData\Event03613.dat
Test\EventData\Event03692.dat
Test\EventData\Event03868.dat
Test\EventData\Event04110.dat
Test\EventData\Event04434.dat
Test\EventData\Event04702.dat
Test\EventData\Event99999.dat
Test\EventData\Events.les
Test\EventData\Events.xtm

Test\TstFiles\GPLLJ.sum
Test\TstFiles\GPLLJ.dat
Test\TstFiles\GPLLJ.bts
Test\TstFiles\GPLLJ.cts
Test\TstFiles\Kaimal.sum
Test\TstFiles\Kaimal.u
Test\TstFiles\Kaimal.v
Test\TstFiles\Kaimal.w
Test\TstFiles\Kaimal_15.sum
Test\TstFiles\Kaimal_15.u
Test\TstFiles\Kaimal_15.v
Test\TstFiles\Kaimal_15.w
Test\TstFiles\KHtest.sum
Test\TstFiles\KHtest.cts
Test\TstFiles\smooth.cts
Test\TstFiles\smooth.sum
Test\TstFiles\smooth.bin
Test\TstFiles\vonKarm.dat
Test\TstFiles\vonKarm.hh
Test\TstFiles\vonKarm.sum
Test\TstFiles\vonKarm_15.dat
Test\TstFiles\vonKarm_15.hh
Test\TstFiles\vonKarm_15.sum



