
ArcFiles.txt
Archive.bat
ChangeLog.txt
Disclaimer.txt
license.txt
Notice.txt
README_FAST8.pdf

FAST_SourceFiles_ED.txt
FAST_SourceFiles_SrvD.txt

Source\FAST_IO.f90
Source\FAST_Mods.f90
Source\FAST_Prog.f90

Source\dependencies\NWTC_Library\*
Source\dependencies\ElastoDyn\*
Source\dependencies\AeroDyn\*
Source\dependencies\InflowWind\*
Source\dependencies\ServoDyn\*
Source\dependencies\HydroDyn\*
Source\dependencies\SubDyn\*
Source\dependencies\MAP\*
Source\dependencies\FAST_dependencies.xlsx

OutListParameters.xlsx

Compiling\Compile_FAST.bat
Compiling\makefile
Compiling\Compile_DISCON_DLL.bat
Compiling\makefile_DISCON_DLL
Compiling\VisualStudio\FAST_Project.vfproj
Compiling\VisualStudio\RunRegistry.bat

Utilities\ModeShapePolyFitting.xls
Utilities\DISCON_DLL_template.f90

Utilities\SimulationToolbox\FAST_Model_Conversion_MATLAB_Toolbox.pdf

Utilities\SimulationToolbox\ConvertFASTVersions\CalculateYawAndPitchRates.m
Utilities\SimulationToolbox\ConvertFASTVersions\ConvertFAST7to8.m
Utilities\SimulationToolbox\ConvertFASTVersions\ConvertFAST8_0to3.m
Utilities\SimulationToolbox\ConvertFASTVersions\TemplateFiles\v8.00.x\AD_Primary.dat
Utilities\SimulationToolbox\ConvertFASTVersions\TemplateFiles\v8.00.x\ED_Blade.dat
Utilities\SimulationToolbox\ConvertFASTVersions\TemplateFiles\v8.00.x\ED_Furling.dat
Utilities\SimulationToolbox\ConvertFASTVersions\TemplateFiles\v8.00.x\ED_Tower.dat
Utilities\SimulationToolbox\ConvertFASTVersions\TemplateFiles\v8.00.x\OutListParameters.xlsx
Utilities\SimulationToolbox\ConvertFASTVersions\TemplateFiles\v8.03.x\ED_Primary_v1.01.x.dat
Utilities\SimulationToolbox\ConvertFASTVersions\TemplateFiles\v8.03.x\FAST_Primary_v8.03.x.dat
Utilities\SimulationToolbox\ConvertFASTVersions\TemplateFiles\v8.03.x\SrvD_Primary_v1.01.x.dat

Utilities\SimulationToolbox\ConvertFASTVersions\InputConversions\newInputs_ED_v1_00.m
Utilities\SimulationToolbox\ConvertFASTVersions\InputConversions\newInputs_ED_v1_01.m
Utilities\SimulationToolbox\ConvertFASTVersions\InputConversions\newInputs_SrvD_v1_01.m

Utilities\SimulationToolbox\FAST2Matlab\AeroDyn2Matlab.m
Utilities\SimulationToolbox\FAST2Matlab\Fast2Matlab.m
Utilities\SimulationToolbox\FAST2Matlab\FastLin2Matlab.m
Utilities\SimulationToolbox\FAST2Matlab\Fast_PC2Matlab.m
Utilities\SimulationToolbox\FAST2Matlab\ImportFastOut.m
Utilities\SimulationToolbox\FAST2Matlab\ParseFASTInputLine.m

Utilities\SimulationToolbox\Matlab2FAST\GenConstWindFile.m
Utilities\SimulationToolbox\Matlab2FAST\GenStepWindFile.m
Utilities\SimulationToolbox\Matlab2FAST\Matlab2AD.m
Utilities\SimulationToolbox\Matlab2FAST\Matlab2FAST.m
Utilities\SimulationToolbox\Matlab2FAST\Matlab2FASTLin.m
Utilities\SimulationToolbox\Matlab2FAST\writeUniformWindFile.m

Utilities\SimulationToolbox\Utilities\GetFastPar.m
Utilities\SimulationToolbox\Utilities\GetFullFileName.m
Utilities\SimulationToolbox\Utilities\GetOutListParameters.m
Utilities\SimulationToolbox\Utilities\GetOutListVars.m
Utilities\SimulationToolbox\Utilities\ReadFASTbinary.m
Utilities\SimulationToolbox\Utilities\ReadFASTtext.m
Utilities\SimulationToolbox\Utilities\SetFastPar.m



CertTest\ConvertFiles.m

CertTest\Bell.txt
CertTest\CertTest.bat
CertTest\DateTime.exe
CertTest\FASTCertTestCases.xlsx
CertTest\Pitch.ipt
CertTest\PlotCertTestResults.m
CertTest\Spd_Trq.dat
CertTest\Update.bat



CertTest\5MW_Baseline\AeroData\*
CertTest\5MW_Baseline\HydroData\*
CertTest\5MW_Baseline\ServoData\Source\DISCON.f90
CertTest\5MW_Baseline\ServoData\Source\DISCON_ITIBarge.f90
CertTest\5MW_Baseline\ServoData\Source\DISCON_OC3Hywind.f90
CertTest\5MW_Baseline\Wind\NoShr_12.wnd
CertTest\5MW_Baseline\Wind\90m_12mps.inp
CertTest\5MW_Baseline\Wind\90m_12mps.bts

CertTest\5MW_Baseline\NRELOffshrBsline5MW_AeroDyn.ipt
CertTest\5MW_Baseline\NRELOffshrBsline5MW_Blade.dat
CertTest\5MW_Baseline\NRELOffshrBsline5MW_Onshore_ElastoDyn.dat
CertTest\5MW_Baseline\NRELOffshrBsline5MW_Onshore_ServoDyn.dat
CertTest\5MW_Baseline\NRELOffshrBsline5MW_Tower_Onshore.dat

CertTest\5MW_Baseline\NRELOffshrBsline5MW_AeroDyn_DT5_TowerDrag.ipt
CertTest\5MW_Baseline\NRELOffshrBsline5MW_AeroDyn_DT5_Tower_TwrDrag.dat
CertTest\5MW_Baseline\NRELOffshrBsline5MW_AeroDyn_DT5_Tower.dat


CertTest\5MW_Baseline\NRELOffshrBsline5MW_AeroDyn_DT5.ipt
CertTest\5MW_Baseline\NRELOffshrBsline5MW_AeroDyn_DT2.ipt

CertTest\5MW_Baseline\NRELOffshrBsline5MW_Floating_OC3Hywind_ElastoDyn.dat
CertTest\5MW_Baseline\NRELOffshrBsline5MW_Floating_OC3Hywind_ServoDyn.dat
CertTest\5MW_Baseline\NRELOffshrBsline5MW_Floating_OC3Hywind_HydroDyn.dat
CertTest\5MW_Baseline\NRELOffshrBsline5MW_Floating_OC3Hywind_MAP.dat
CertTest\5MW_Baseline\NRELOffshrBsline5MW_Tower_OC3Hywind.dat

CertTest\5MW_Baseline\NRELOffshrBsline5MW_Floating_TLP_ElastoDyn.dat
CertTest\5MW_Baseline\NRELOffshrBsline5MW_Floating_TLP_ServoDyn.dat
CertTest\5MW_Baseline\NRELOffshrBsline5MW_Floating_TLP_HydroDyn.dat
CertTest\5MW_Baseline\NRELOffshrBsline5MW_Floating_TLP_MAP.dat
CertTest\5MW_Baseline\NRELOffshrBsline5MW_Tower_TLP.dat

CertTest\5MW_Baseline\NRELOffshrBsline5MW_ITIBarge4_ElastoDyn.dat
CertTest\5MW_Baseline\NRELOffshrBsline5MW_ITIBarge4_ServoDyn.dat
CertTest\5MW_Baseline\NRELOffshrBsline5MW_ITIBarge4_HydroDyn.dat
CertTest\5MW_Baseline\NRELOffshrBsline5MW_ITIBarge4_MAP.dat
CertTest\5MW_Baseline\NRELOffshrBsline5MW_Tower_ITIBarge4.dat

CertTest\5MW_Baseline\NRELOffshrBsline5MW_Monopile_RF_ElastoDyn.dat
CertTest\5MW_Baseline\NRELOffshrBsline5MW_Monopile_RF_ServoDyn.dat
CertTest\5MW_Baseline\NRELOffshrBsline5MW_Monopile_RF_HydroDyn.dat
CertTest\5MW_Baseline\NRELOffshrBsline5MW_Monopile_RF_SubDyn.dat
CertTest\5MW_Baseline\NRELOffshrBsline5MW_Tower_Monopile_RF.dat
CertTest\5MW_Baseline\NRELOffshrBsline5MW_AeroDyn_DT05.ipt



CertTest\AOC\AeroData\S814_1.dat
CertTest\AOC\AeroData\S814_15.dat
CertTest\AOC\AeroData\S812_15.dat
CertTest\AOC\AeroData\S812_2.dat
CertTest\AOC\AeroData\S813_15.dat

CertTest\AOC\Wind\25m_12mps.inp
CertTest\AOC\Wind\25m_12mps.sum
CertTest\AOC\Wind\25m_12mps.wnd
CertTest\AOC\Wind\NoShr_12.wnd
CertTest\AOC\Wind\Shr11_30.wnd

CertTest\AOC\AOC_Blade.dat
CertTest\AOC\AOC_Tower.dat
CertTest\AOC\Test06_ElastoDyn.dat
CertTest\AOC\Test06_ServoDyn.dat
CertTest\AOC\Test06_AD.ipt
CertTest\AOC\Test07_ElastoDyn.dat
CertTest\AOC\Test07_ServoDyn.dat
CertTest\AOC\Test07_AD.ipt
CertTest\AOC\Test08_ElastoDyn.dat
CertTest\AOC\Test08_ServoDyn.dat
CertTest\AOC\Test08_AD.ipt



CertTest\AWT27\AeroData\AWT27_05.dat
CertTest\AWT27\AeroData\AWT27_15.dat
CertTest\AWT27\AeroData\AWT27_25.dat
CertTest\AWT27\AeroData\AWT27_35.dat
CertTest\AWT27\AeroData\AWT27_45.dat
CertTest\AWT27\AeroData\AWT27_55.dat
CertTest\AWT27\AeroData\AWT27_65.dat
CertTest\AWT27\AeroData\AWT27_75.dat
CertTest\AWT27\AeroData\AWT27_85.dat
CertTest\AWT27\AeroData\AWT27_95.dat

CertTest\AWT27\Wind\42m_12mps.inp
CertTest\AWT27\Wind\42m_12mps.sum
CertTest\AWT27\Wind\42m_12mps.wnd
CertTest\AWT27\Wind\NoShr_12.wnd
CertTest\AWT27\Wind\Shr12_30.wnd

CertTest\AWT27\AWT_Blades.dat
CertTest\AWT27\AWT_Tower.dat
CertTest\AWT27\Test01_ElastoDyn.dat
CertTest\AWT27\Test01_ServoDyn.dat
CertTest\AWT27\Test01_AD.ipt
CertTest\AWT27\Test02_ElastoDyn.dat
CertTest\AWT27\Test02_ServoDyn.dat
CertTest\AWT27\Test02_AD.ipt
CertTest\AWT27\Test03_ElastoDyn.dat
CertTest\AWT27\Test03_ServoDyn.dat
CertTest\AWT27\Test03_AD.ipt
CertTest\AWT27\Test04_ElastoDyn.dat
CertTest\AWT27\Test04_ServoDyn.dat
CertTest\AWT27\Test04_AD.ipt
CertTest\AWT27\Test05_ElastoDyn.dat
CertTest\AWT27\Test05_ServoDyn.dat
CertTest\AWT27\Test05_AD.ipt



CertTest\SWRT\AeroData\SH3052Mod_AllRe_Elem14_Hanley.dat
CertTest\SWRT\AeroData\SH3052Mod_AllRe_Elem15_Hanley.dat
CertTest\SWRT\AeroData\SH3052Mod_AllRe_Hanley.dat
CertTest\SWRT\AeroData\TailPlate.dat

CertTest\SWRT\Wind\35m_16mps.inp
CertTest\SWRT\Wind\35m_16mps.sum
CertTest\SWRT\Wind\35m_16mps.wnd
CertTest\SWRT\Wind\EDC_01NR.wnd
CertTest\SWRT\Wind\EOG_01_R.wnd
CertTest\SWRT\Wind\IEC.ipt

CertTest\SWRT\SWRT_Blade.dat
CertTest\SWRT\SWRT_Furl.dat
CertTest\SWRT\SWRT_Tower.dat
CertTest\SWRT\Test15_ElastoDyn.dat
CertTest\SWRT\Test15_ServoDyn.dat
CertTest\SWRT\Test15_AD.ipt
CertTest\SWRT\Test16_ElastoDyn.dat
CertTest\SWRT\Test16_ServoDyn.dat
CertTest\SWRT\Test16_AD.ipt
CertTest\SWRT\Test17_ElastoDyn.dat
CertTest\SWRT\Test17_ServoDyn.dat
CertTest\SWRT\Test17_AD.ipt



CertTest\UAE_VI\AeroData\cylinder.dat
CertTest\UAE_VI\AeroData\Mod_S809_129.dat
CertTest\UAE_VI\AeroData\Mod_S809_185.dat
CertTest\UAE_VI\AeroData\Mod_S809_242.dat
CertTest\UAE_VI\AeroData\Mod_S809_298.dat
CertTest\UAE_VI\AeroData\Mod_S809_354.dat
CertTest\UAE_VI\AeroData\Mod_S809_410.dat
CertTest\UAE_VI\AeroData\Mod_S809_600.dat
CertTest\UAE_VI\AeroData\Mod_S809_800.dat
CertTest\UAE_VI\AeroData\Mod_S809_Outboard.dat

CertTest\UAE_VI\Wind\PwrCrv.wnd
CertTest\UAE_VI\Wind\Shr11_30.wnd

CertTest\UAE_VI\UAE_Ames_Blades.dat
CertTest\UAE_VI\UAE_Ames_Tower.dat
CertTest\UAE_VI\Test09_ElastoDyn.dat
CertTest\UAE_VI\Test09_ServoDyn.dat
CertTest\UAE_VI\Test09_AD.ipt
CertTest\UAE_VI\Test10_ElastoDyn.dat
CertTest\UAE_VI\Test10_ServoDyn.dat
CertTest\UAE_VI\Test10_AD.ipt



CertTest\WP_Baseline\AeroData\cylinder.dat
CertTest\WP_Baseline\AeroData\S818_2703.dat
CertTest\WP_Baseline\AeroData\S825_2103.dat
CertTest\WP_Baseline\AeroData\S826_1603.dat

CertTest\WP_Baseline\Wind\84m_12mps.inp
CertTest\WP_Baseline\Wind\84m_12mps.sum
CertTest\WP_Baseline\Wind\84m_12mps.wnd
CertTest\WP_Baseline\Wind\ECD_00PR.wnd
CertTest\WP_Baseline\Wind\IEC.ipt

CertTest\WP_Baseline\Baseline_Blade.dat
CertTest\WP_Baseline\Baseline_Blade_NoDamp.dat
CertTest\WP_Baseline\Baseline_Tower.dat
CertTest\WP_Baseline\Baseline_Tower_NoDamp.dat

CertTest\WP_Baseline\Test11_ElastoDyn.dat
CertTest\WP_Baseline\Test11_ServoDyn.dat
CertTest\WP_Baseline\Test11_AD.ipt

CertTest\WP_Baseline\Test12_ElastoDyn.dat
CertTest\WP_Baseline\Test12_ServoDyn.dat
CertTest\WP_Baseline\Test12_AD.ipt

CertTest\WP_Baseline\Test13_ElastoDyn.dat
CertTest\WP_Baseline\Test13_ServoDyn.dat
CertTest\WP_Baseline\Test13_AD.ipt



CertTest\Test01.fst
CertTest\Test01.cru

CertTest\Test02.fst
CertTest\Test02.cru

CertTest\Test03.fst
CertTest\Test03.cru

CertTest\Test04.fst
CertTest\Test04.cru

CertTest\Test05.fst
CertTest\Test05.cru

CertTest\Test06.fst
CertTest\Test06.cru

CertTest\Test07.fst
CertTest\Test07.cru

CertTest\Test08.fst
CertTest\Test08.cru

CertTest\Test09.fst
CertTest\Test09.cru

CertTest\Test10.fst
CertTest\Test10.cru

CertTest\Test11.fst
CertTest\Test11.cru

CertTest\Test12.fst
CertTest\Test12.cru

CertTest\Test13.fst
CertTest\Test13.cru

CertTest\Test15.fst
CertTest\Test15.cru

CertTest\Test16.fst
CertTest\Test16.cru

CertTest\Test17.fst
CertTest\Test17.cru

CertTest\Test18.fst
CertTest\Test18.cru

CertTest\Test19.fst
CertTest\Test19.cru

CertTest\Test22.fst
CertTest\Test22.cru

CertTest\Test23.fst
CertTest\Test23.cru

CertTest\Test24.fst
CertTest\Test24.cru



CertTest\TstFiles\Test01.sum
CertTest\TstFiles\Test01.sts
CertTest\TstFiles\Test01.azi

CertTest\TstFiles\Test02_ElastoDyn.sum
CertTest\TstFiles\Test02.sts

CertTest\TstFiles\Test03_ElastoDyn.sum
CertTest\TstFiles\Test03.sts
CertTest\TstFiles\Test03.azi

CertTest\TstFiles\Test04_ElastoDyn.sum
CertTest\TstFiles\Test04.sts
CertTest\TstFiles\Test04.pmf

CertTest\TstFiles\Test05_ElastoDyn.sum
CertTest\TstFiles\Test05.sts

CertTest\TstFiles\Test06.sum
CertTest\TstFiles\Test06.sts

CertTest\TstFiles\Test07_ElastoDyn.sum
CertTest\TstFiles\Test07.sts
CertTest\TstFiles\Test07.pmf

CertTest\TstFiles\Test08_ElastoDyn.sum
CertTest\TstFiles\Test08.sts
CertTest\TstFiles\Test08.azi

CertTest\TstFiles\Test09_ElastoDyn.sum
CertTest\TstFiles\Test09.sts

CertTest\TstFiles\Test10_ElastoDyn.sum
CertTest\TstFiles\Test10.sts

CertTest\TstFiles\Test11.sum
CertTest\TstFiles\Test11.sts

CertTest\TstFiles\Test12_ElastoDyn.sum
CertTest\TstFiles\Test12.sts

CertTest\TstFiles\Test13_ElastoDyn.sum
CertTest\TstFiles\Test13.sts
CertTest\TstFiles\Test13.pmf


CertTest\TstFiles\Test15.sum
CertTest\TstFiles\Test15.sts

CertTest\TstFiles\Test16_ElastoDyn.sum
CertTest\TstFiles\Test16.sts

CertTest\TstFiles\Test17_ElastoDyn.sum
CertTest\TstFiles\Test17.sts
CertTest\TstFiles\Test17.pmf

CertTest\TstFiles\Test18.sum
CertTest\TstFiles\Test18.sts

CertTest\TstFiles\Test19.sum
CertTest\TstFiles\Test19.sts



CertTest\TstFiles\Test22.sum
CertTest\TstFiles\Test22.sts

CertTest\TstFiles\Test23.sum
CertTest\TstFiles\Test23.sts

CertTest\TstFiles\Test24.sum
CertTest\TstFiles\Test24.sts
