ChangeLog.txt
Disclaimer.txt

TurbSim.pdf
TurbSimOverview.pdf

Source\BlankModVKM.f90
Source\CohStructures.f90
Source\Profiles.f90
Source\RandNum.f90
Source\Root_Searching.f90
Source\TS_FileIO.f90
Source\TSsubs.f90
Source\TurbSim.f90
Source\TurbSim_Types.f90
Source\VelocitySpectra.f90

Source\dependencies\NetLib\*
Source\dependencies\NWTC_Library\*
Source\dependencies\RNG\*

compiling\VisualStudio\TurbSim.vfproj
compiling\makefile

ExampleFiles\TurbSim.inp
ExampleFiles\TurbSim_Hydro.inp
ExampleFiles\RunTurbSim.pl
ExampleFiles\TurbSim_AD.ctp

CertTest\Bell.txt
CertTest\CertTest.bat
CertTest\GPLLJ.inp
CertTest\Kaimal.inp
CertTest\Kaimal_15.inp
CertTest\KHtest.inp
CertTest\smooth.inp
CertTest\Update.bat
CertTest\vonKarm.inp
CertTest\vonKarm_15.inp
CertTest\Hydro_Tidal.inp

CertTest\TurbSim_UsrSpec.inp
CertTest\UsrSpec.inp

CertTest\UsrVkm.inp
CertTest\UsrVkm.profiles

CertTest\UsrShear.inp
CertTest\UsrShear.profiles

CertTest\UserTimeSeries.inp
CertTest\UserTimeSeries\20140113_164000_inertial_MDR.TimeSer
CertTest\UserTimeSeries\InertialDataToInputFile.m
CertTest\UserTimeSeries\writeTurbSimTimeSeriesInput.m

CertTest\CompareBTSfiles.m
CertTest\CompareCTSfiles.m
CertTest\CompareFFtxtFiles.m
CertTest\CompareHHfiles.m
CertTest\CompareWNDfiles.m
CertTest\loadColumnData.m
CertTest\loadFFtxt.m
CertTest\readBLgrid.m
CertTest\readCTSfile.m
CertTest\readHHbin.m
CertTest\readfile_BTS.m

CertTest\EventData\*

CertTest\TstFiles\GPLLJ.sum
CertTest\TstFiles\GPLLJ.dat
CertTest\TstFiles\GPLLJ.bts
CertTest\TstFiles\GPLLJ.cts
CertTest\TstFiles\Kaimal.sum
CertTest\TstFiles\Kaimal.u
CertTest\TstFiles\Kaimal.v
CertTest\TstFiles\Kaimal.w
CertTest\TstFiles\Kaimal_15.sum
CertTest\TstFiles\Kaimal_15.u
CertTest\TstFiles\Kaimal_15.v
CertTest\TstFiles\Kaimal_15.w
CertTest\TstFiles\KHtest.sum
CertTest\TstFiles\KHtest.cts
CertTest\TstFiles\smooth.cts
CertTest\TstFiles\smooth.sum
CertTest\TstFiles\smooth.bin
CertTest\TstFiles\vonKarm.dat
CertTest\TstFiles\vonKarm.hh
CertTest\TstFiles\vonKarm.sum
CertTest\TstFiles\vonKarm_15.dat
CertTest\TstFiles\vonKarm_15.hh
CertTest\TstFiles\vonKarm_15.sum



