AeroDyn.pdf
UserGuideAddendum_AeroDyn13Interface.pdf
ArcFiles.txt
Archive.bat
ChangeLog.txt
DevelopLog.txt
Disclaimer.txt
4D_Wind/AeroDyn.ipt
4D_Wind/LES.fdp
Samples/AeroDyn.ipt
Samples/AeroDyn_Tower.dat
Samples/AeroDyn_TowerInfl.ipt
Samples/S809_CLN.dat
Samples/Steady.wnd
Samples/Turb.sum
Samples/Turb.wnd
Samples/TurbSim_AD.ctp
Source/AeroDyn.f90
Source/AeroMods.f90
Source/AeroSubs.f90
Source/GenSubs.f90
Source/SharedTypes.f90

