ChangeLog.txt
Disclaimer.txt
license.txt

FAST_SourceFiles.txt

Samples/AeroDyn_Tower.dat
Samples/SampleAirfoil.dat
Samples/SampleInput_wo_TwrInfluence.ad
Samples/SampleInput_w_TwrInfluence.ad

Documentation/AD_Theory.pdf
Documentation/AeroDyn.pdf
Documentation/Damiani_AeroDynAlgorithms.pdf
Documentation/Damiani_AeroDynAlgorithms_Appendices.pdf
Documentation/NewTower.pdf