
ArcFiles.txt
ArcWin.txt
Archive.bat

ChangeLog.txt
Disclaimer.txt
license.txt
Notice.txt
README_FAST8.pdf

Source\FAST_Subs.f90
Source\FAST_Mods.f90
Source\FAST_Types.f90
Source\FAST_Registry.txt
Source\FAST_Prog.f90
Source\FAST_Library.f90

Source\FAST_Library.h
Source\FAST_Prog.c

Source\dependencies\NWTC_Library\*
Source\dependencies\NetLib\*
Source\dependencies\ElastoDyn\*
Source\dependencies\BeamDyn\*
Source\dependencies\AeroDyn\*
Source\dependencies\AeroDyn14\*
Source\dependencies\InflowWind\*
Source\dependencies\OpenFOAM\*
Source\dependencies\ServoDyn\*
Source\dependencies\HydroDyn\*
Source\dependencies\SubDyn\*
Source\dependencies\MAP\*
Source\dependencies\FEAMooring\*
Source\dependencies\MoorDyn\*
Source\dependencies\IceFloe\*
Source\dependencies\IceDyn\*
Source\dependencies\FAST_dependencies.xlsx

Source\dependencies\Registry\*

OutListParameters.xlsx


Simulink\Source\FAST_SFunc.c
Simulink\Source\create_FAST_SFunc.m

Simulink\Samples\OpenLoop.mdl
Simulink\Samples\Run_OpenLoop.m
Simulink\Samples\Test01_SIG.mdl
Simulink\Samples\Run_Test01_SIG.m

Simulink\VisualStudio\FAST_Library.vfproj

Compiling\CompilingInstructions_FASTv8.pdf
Compiling\Compile_FAST.bat
Compiling\makefile
Compiling\Compile_DISCON_DLL.bat
Compiling\makefile_DISCON_DLL
Compiling\VisualStudio\FAST_Project.vfproj
Compiling\VisualStudio\RunRegistry.bat
Compiling\DISCON_DLLs\DISCON.vfproj

Utilities\ModeShapePolyFitting.xls
Utilities\DISCON_DLL_template.f90

Utilities\MatlabGeneratedOutput\Write_ChckOutLst.m

Utilities\SimulationToolbox\FAST_Model_Conversion_MATLAB_Toolbox.pdf

Utilities\SimulationToolbox\ConvertFASTVersions\CalculateYawAndPitchRates.m
Utilities\SimulationToolbox\ConvertFASTVersions\ConvertFAST7to8.m
Utilities\SimulationToolbox\ConvertFASTVersions\ConvertFAST8_0to3.m
Utilities\SimulationToolbox\ConvertFASTVersions\ConvertFAST8_3to8.m
Utilities\SimulationToolbox\ConvertFASTVersions\ConvertFAST8_8to9.m
Utilities\SimulationToolbox\ConvertFASTVersions\ConvertFAST8_9to10.m
Utilities\SimulationToolbox\ConvertFASTVersions\ConvertFAST8_10to12.m
Utilities\SimulationToolbox\ConvertFASTVersions\ConvertHDto2_01_00.m
Utilities\SimulationToolbox\ConvertFASTVersions\ConvertHDto2_02_00.m
Utilities\SimulationToolbox\ConvertFASTVersions\ConvertSDto1_01_00.m

Utilities\SimulationToolbox\ConvertFASTVersions\TemplateFiles\v8.00.x\AD_Primary.dat
Utilities\SimulationToolbox\ConvertFASTVersions\TemplateFiles\v8.00.x\ED_Blade.dat
Utilities\SimulationToolbox\ConvertFASTVersions\TemplateFiles\v8.00.x\ED_Furling.dat
Utilities\SimulationToolbox\ConvertFASTVersions\TemplateFiles\v8.00.x\ED_Tower.dat
Utilities\SimulationToolbox\ConvertFASTVersions\TemplateFiles\v8.00.x\OutListParameters.xlsx
Utilities\SimulationToolbox\ConvertFASTVersions\TemplateFiles\ED_Primary_v1.03.x.dat
Utilities\SimulationToolbox\ConvertFASTVersions\TemplateFiles\FAST_Primary_v8.12.x.dat
Utilities\SimulationToolbox\ConvertFASTVersions\TemplateFiles\SrvD_Primary_v1.02.x.dat
Utilities\SimulationToolbox\ConvertFASTVersions\TemplateFiles\AD_Primary_v14.04.x.dat
Utilities\SimulationToolbox\ConvertFASTVersions\TemplateFiles\AD_Primary_v14.04.x_NT.dat
Utilities\SimulationToolbox\ConvertFASTVersions\TemplateFiles\AD_Primary_v15.00.x.dat
Utilities\SimulationToolbox\ConvertFASTVersions\TemplateFiles\AD_Blade_v15.00.x.dat
Utilities\SimulationToolbox\ConvertFASTVersions\TemplateFiles\IfW_v3.01.x.dat
Utilities\SimulationToolbox\ConvertFASTVersions\TemplateFiles\HDv2.01.00.dat
Utilities\SimulationToolbox\ConvertFASTVersions\TemplateFiles\HDv2.02.x.dat
Utilities\SimulationToolbox\ConvertFASTVersions\TemplateFiles\SDv1.01.x.dat

Utilities\SimulationToolbox\ConvertFASTVersions\InputConversions\*.m

Utilities\SimulationToolbox\FAST2Matlab\AeroDyn2Matlab.m
Utilities\SimulationToolbox\FAST2Matlab\Fast2Matlab.m
Utilities\SimulationToolbox\FAST2Matlab\FastLin2Matlab.m
Utilities\SimulationToolbox\FAST2Matlab\Fast_PC2Matlab.m
Utilities\SimulationToolbox\FAST2Matlab\HD2Matlab.m
Utilities\SimulationToolbox\FAST2Matlab\ImportFastOut.m
Utilities\SimulationToolbox\FAST2Matlab\ParseFASTInputLine.m

Utilities\SimulationToolbox\Matlab2FAST\GenConstWindFile.m
Utilities\SimulationToolbox\Matlab2FAST\GenStepWindFile.m
Utilities\SimulationToolbox\Matlab2FAST\Matlab2AD.m
Utilities\SimulationToolbox\Matlab2FAST\Matlab2FAST.m
Utilities\SimulationToolbox\Matlab2FAST\Matlab2FASTLin.m
Utilities\SimulationToolbox\Matlab2FAST\Matlab2HD.m
Utilities\SimulationToolbox\Matlab2FAST\writeUniformWindFile.m

Utilities\SimulationToolbox\Utilities\GetFastPar.m
Utilities\SimulationToolbox\Utilities\GetFullFileName.m
Utilities\SimulationToolbox\Utilities\GetOutListParameters.m
Utilities\SimulationToolbox\Utilities\GetOutListVars.m
Utilities\SimulationToolbox\Utilities\ReadFASTbinary.m
Utilities\SimulationToolbox\Utilities\ReadFASTtext.m
Utilities\SimulationToolbox\Utilities\ReadFASTmesh.m
Utilities\SimulationToolbox\Utilities\ReadSubDynSummary.m
Utilities\SimulationToolbox\Utilities\SetFastPar.m

Utilities\SimulationToolbox\Visualization\PlotFASToutput.m
Utilities\SimulationToolbox\Visualization\DrawMesh.m


CertTest\ConvertFiles.m

CertTest\Bell.txt
CertTest\CertTest.bat
CertTest\DateTime.exe
CertTest\FASTCertTestCases.xlsx
CertTest\pitch.ipt
CertTest\PlotCertTestResults.m
CertTest\spd_trq.dat
CertTest\Update.bat



CertTest\5MW_Baseline\AeroData\*
CertTest\5MW_Baseline\Airfoils\*
CertTest\5MW_Baseline\HydroData\*
CertTest\5MW_Baseline\ServoData\Source\DISCON.f90
CertTest\5MW_Baseline\ServoData\Source\DISCON_ITIBarge.f90
CertTest\5MW_Baseline\ServoData\Source\DISCON_OC3Hywind.f90
CertTest\5MW_Baseline\Wind\90m_12mps_twr.inp
CertTest\5MW_Baseline\Wind\90m_12mps_twr.bts

CertTest\5MW_Baseline\NRELOffshrBsline5MW_Blade.dat
CertTest\5MW_Baseline\NRELOffshrBsline5MW_InflowWind_12mps.dat
CertTest\5MW_Baseline\NRELOffshrBsline5MW_InflowWind_Steady8mps.dat
CertTest\5MW_Baseline\NRELOffshrBsline5MW_AeroDyn_Equil_noTwr.dat
CertTest\5MW_Baseline\NRELOffshrBsline5MW_AeroDyn15_Equil_noTwr.dat
CertTest\5MW_Baseline\NRELOffshrBsline5MW_AeroDyn_blade.dat
CertTest\5MW_Baseline\NRELOffshrBsline5MW_BeamDyn.dat
CertTest\5MW_Baseline\NRELOffshrBsline5MW_BeamDyn_Blade.dat

CertTest\5MW_Baseline\NRELOffshrBsline5MW_Onshore_ElastoDyn.dat
CertTest\5MW_Baseline\NRELOffshrBsline5MW_Onshore_ElastoDyn_Tower.dat
CertTest\5MW_Baseline\NRELOffshrBsline5MW_Onshore_ServoDyn.dat
CertTest\5MW_Baseline\NRELOffshrBsline5MW_Onshore_AeroDyn.dat
CertTest\5MW_Baseline\NRELOffshrBsline5MW_Onshore_AeroDyn15.dat
CertTest\5MW_Baseline\NRELOffshrBsline5MW_Onshore_AeroDyn_Tower.dat

CertTest\5MW_Baseline\NRELOffshrBsline5MW_OC3Monopile_ElastoDyn.dat
CertTest\5MW_Baseline\NRELOffshrBsline5MW_OC3Monopile_ElastoDyn_Tower.dat
CertTest\5MW_Baseline\NRELOffshrBsline5MW_OC3Monopile_ServoDyn.dat
CertTest\5MW_Baseline\NRELOffshrBsline5MW_OC3Monopile_HydroDyn.dat
CertTest\5MW_Baseline\NRELOffshrBsline5MW_OC3Monopile_SubDyn.dat
CertTest\5MW_Baseline\NRELOffshrBsline5MW_OC3Monopile_AeroDyn.dat
CertTest\5MW_Baseline\NRELOffshrBsline5MW_OC3Monopile_AeroDyn15.dat
CertTest\5MW_Baseline\NRELOffshrBsline5MW_OC3Monopile_AeroDyn_Tower.dat

CertTest\5MW_Baseline\NRELOffshrBsline5MW_OC3Tripod_ElastoDyn.dat
CertTest\5MW_Baseline\NRELOffshrBsline5MW_OC3Tripod_ElastoDyn_Tower.dat
CertTest\5MW_Baseline\NRELOffshrBsline5MW_OC3Tripod_ServoDyn.dat
CertTest\5MW_Baseline\NRELOffshrBsline5MW_OC3Tripod_HydroDyn.dat
CertTest\5MW_Baseline\NRELOffshrBsline5MW_OC3Tripod_SubDyn.dat
CertTest\5MW_Baseline\NRELOffshrBsline5MW_OC3Tripod_AeroDyn.dat
CertTest\5MW_Baseline\NRELOffshrBsline5MW_OC3Tripod_AeroDyn15.dat
CertTest\5MW_Baseline\NRELOffshrBsline5MW_OC3Tripod_AeroDyn_Tower.dat

CertTest\5MW_Baseline\NRELOffshrBsline5MW_OC4Jacket_ElastoDyn.dat
CertTest\5MW_Baseline\NRELOffshrBsline5MW_OC4Jacket_ElastoDyn_Tower.dat
CertTest\5MW_Baseline\NRELOffshrBsline5MW_OC4Jacket_ServoDyn.dat
CertTest\5MW_Baseline\NRELOffshrBsline5MW_OC4Jacket_HydroDyn.dat
CertTest\5MW_Baseline\NRELOffshrBsline5MW_OC4Jacket_SubDyn.dat
CertTest\5MW_Baseline\NRELOffshrBsline5MW_OC4Jacket_AeroDyn.dat
CertTest\5MW_Baseline\NRELOffshrBsline5MW_OC4Jacket_AeroDyn15.dat
CertTest\5MW_Baseline\NRELOffshrBsline5MW_OC4Jacket_AeroDyn_Tower.dat

CertTest\5MW_Baseline\NRELOffshrBsline5MW_ITIBarge4_ElastoDyn.dat
CertTest\5MW_Baseline\NRELOffshrBsline5MW_ITIBarge4_ElastoDyn_Tower.dat
CertTest\5MW_Baseline\NRELOffshrBsline5MW_ITIBarge4_ServoDyn.dat
CertTest\5MW_Baseline\NRELOffshrBsline5MW_ITIBarge4_HydroDyn.dat
CertTest\5MW_Baseline\NRELOffshrBsline5MW_ITIBarge4_MAP.dat

CertTest\5MW_Baseline\NRELOffshrBsline5MW_MIT_NREL_TLP_ElastoDyn.dat
CertTest\5MW_Baseline\NRELOffshrBsline5MW_MIT_NREL_TLP_ElastoDyn_Tower.dat
CertTest\5MW_Baseline\NRELOffshrBsline5MW_MIT_NREL_TLP_ServoDyn.dat
CertTest\5MW_Baseline\NRELOffshrBsline5MW_MIT_NREL_TLP_HydroDyn.dat
CertTest\5MW_Baseline\NRELOffshrBsline5MW_MIT_NREL_TLP_MAP.dat

CertTest\5MW_Baseline\NRELOffshrBsline5MW_OC3Hywind_ElastoDyn.dat
CertTest\5MW_Baseline\NRELOffshrBsline5MW_OC3Hywind_ElastoDyn_Tower.dat
CertTest\5MW_Baseline\NRELOffshrBsline5MW_OC3Hywind_ServoDyn.dat
CertTest\5MW_Baseline\NRELOffshrBsline5MW_OC3Hywind_HydroDyn.dat
CertTest\5MW_Baseline\NRELOffshrBsline5MW_OC3Hywind_MAP.dat

CertTest\5MW_Baseline\NRELOffshrBsline5MW_OC4DeepCwindSemi_ElastoDyn.dat
CertTest\5MW_Baseline\NRELOffshrBsline5MW_OC4DeepCwindSemi_ElastoDyn_Tower.dat
CertTest\5MW_Baseline\NRELOffshrBsline5MW_OC4DeepCwindSemi_ServoDyn.dat
CertTest\5MW_Baseline\NRELOffshrBsline5MW_OC4DeepCwindSemi_HydroDyn.dat
CertTest\5MW_Baseline\NRELOffshrBsline5MW_OC4DeepCwindSemi_MAP.dat



CertTest\Test21_withIce.fst
CertTest\5MW_Baseline\IceFloe_IEC_Crushing.dat
CertTest\5MW_Baseline\NRELOffshrBsline5MW_OC3Monopile_HydroDyn_withIce.dat
CertTest\5MW_Baseline\NRELOffshrBsline5MW_OC4Jacket_HydroDyn_withIce.dat
CertTest\5MW_Baseline\IceDyn_Input.dat
CertTest\5MW_Baseline\NRELOffshrBsline5MW_ITIBarge4_FEAMooring.dat
CertTest\5MW_Baseline\NRELOffshrBsline5MW_ServoDyn_TMD.dat


CertTest\AOC\AeroData\*
CertTest\AOC\Wind\25m_12mps.inp
CertTest\AOC\Wind\25m_12mps.sum
CertTest\AOC\Wind\25m_12mps.wnd
CertTest\AOC\Wind\NoShr_12.wnd

CertTest\AOC\AOC_Blade.dat
CertTest\AOC\AOC_Tower.dat
CertTest\AOC\Test06_ElastoDyn.dat
CertTest\AOC\Test06_ServoDyn.dat
CertTest\AOC\Test06_AD.ipt
CertTest\AOC\Test06_InflowWind.dat

CertTest\AOC\Test07_ElastoDyn.dat
CertTest\AOC\Test07_ServoDyn.dat
CertTest\AOC\Test07_AD.ipt
CertTest\AOC\Test07_InflowWind.dat

CertTest\AOC\Test08_ElastoDyn.dat
CertTest\AOC\Test08_ServoDyn.dat
CertTest\AOC\Test08_AD.ipt
CertTest\AOC\Test08_InflowWind.dat



CertTest\AWT27\AeroData\*

CertTest\AWT27\Wind\42m_12mps.inp
CertTest\AWT27\Wind\42m_12mps.sum
CertTest\AWT27\Wind\42m_12mps.wnd
CertTest\AWT27\Wind\NoShr_12.wnd
CertTest\AWT27\Wind\Shr12_30.wnd

CertTest\AWT27\AWT_Blades.dat
CertTest\AWT27\AWT_Tower.dat
CertTest\AWT27\Test01_ElastoDyn.dat
CertTest\AWT27\Test01_ServoDyn.dat
CertTest\AWT27\Test01_AD.ipt
CertTest\AWT27\Test01_InflowWind.dat

CertTest\AWT27\Test02_ElastoDyn.dat
CertTest\AWT27\Test02_ServoDyn.dat
CertTest\AWT27\Test02_AD.ipt
CertTest\AWT27\Test02_InflowWind.dat

CertTest\AWT27\Test03_ElastoDyn.dat
CertTest\AWT27\Test03_ServoDyn.dat
CertTest\AWT27\Test03_AD.ipt
CertTest\AWT27\Test03_InflowWind.dat

CertTest\AWT27\Test04_ElastoDyn.dat
CertTest\AWT27\Test04_ServoDyn.dat
CertTest\AWT27\Test04_AD.ipt
CertTest\AWT27\Test04_InflowWind.dat

CertTest\AWT27\Test05_ElastoDyn.dat
CertTest\AWT27\Test05_ServoDyn.dat
CertTest\AWT27\Test05_AD.ipt
CertTest\AWT27\Test05_InflowWind.dat



CertTest\SWRT\AeroData\SH3052Mod_AllRe_Elem14_Hanley.dat
CertTest\SWRT\AeroData\SH3052Mod_AllRe_Elem15_Hanley.dat
CertTest\SWRT\AeroData\SH3052Mod_AllRe_Hanley.dat
CertTest\SWRT\AeroData\TailPlate.dat

CertTest\SWRT\Wind\35m_16mps.inp
CertTest\SWRT\Wind\35m_16mps.sum
CertTest\SWRT\Wind\35m_16mps.wnd
CertTest\SWRT\Wind\EDC_01NR.wnd
CertTest\SWRT\Wind\EOG_01_R.wnd
CertTest\SWRT\Wind\IEC.ipt

CertTest\SWRT\SWRT_Blade.dat
CertTest\SWRT\SWRT_Furl.dat
CertTest\SWRT\SWRT_Tower.dat
CertTest\SWRT\SWRT_AeroDyn.dat
CertTest\SWRT\Test15_ElastoDyn.dat
CertTest\SWRT\Test15_ServoDyn.dat
CertTest\SWRT\Test15_InflowWind.dat
CertTest\SWRT\Test16_ElastoDyn.dat
CertTest\SWRT\Test16_ServoDyn.dat
CertTest\SWRT\Test16_InflowWind.dat
CertTest\SWRT\Test17_ElastoDyn.dat
CertTest\SWRT\Test17_ServoDyn.dat
CertTest\SWRT\Test17_InflowWind.dat



CertTest\UAE_VI\AeroData\cylinder.dat
CertTest\UAE_VI\AeroData\Mod_S809_129.dat
CertTest\UAE_VI\AeroData\Mod_S809_185.dat
CertTest\UAE_VI\AeroData\Mod_S809_242.dat
CertTest\UAE_VI\AeroData\Mod_S809_298.dat
CertTest\UAE_VI\AeroData\Mod_S809_354.dat
CertTest\UAE_VI\AeroData\Mod_S809_410.dat
CertTest\UAE_VI\AeroData\Mod_S809_600.dat
CertTest\UAE_VI\AeroData\Mod_S809_800.dat
CertTest\UAE_VI\AeroData\Mod_S809_Outboard.dat

CertTest\UAE_VI\Wind\PwrCrv.wnd
CertTest\UAE_VI\Wind\Shr11_30.wnd

CertTest\UAE_VI\UAE_Ames_Blades.dat
CertTest\UAE_VI\UAE_Ames_Tower.dat
CertTest\UAE_VI\Test09_ElastoDyn.dat
CertTest\UAE_VI\Test09_ServoDyn.dat
CertTest\UAE_VI\Test09_AD.ipt
CertTest\UAE_VI\Test09_InflowWind.dat

CertTest\UAE_VI\Test10_ElastoDyn.dat
CertTest\UAE_VI\Test10_ServoDyn.dat
CertTest\UAE_VI\Test10_AD.ipt
CertTest\UAE_VI\Test10_InflowWind.dat



CertTest\WP_Baseline\AeroData\cylinder.dat
CertTest\WP_Baseline\AeroData\S818_2703.dat
CertTest\WP_Baseline\AeroData\S825_2103.dat
CertTest\WP_Baseline\AeroData\S826_1603.dat

CertTest\WP_Baseline\Wind\84m_12mps.inp
CertTest\WP_Baseline\Wind\84m_12mps.sum
CertTest\WP_Baseline\Wind\84m_12mps.wnd
CertTest\WP_Baseline\Wind\ECD_00PR.wnd
CertTest\WP_Baseline\Wind\IEC.ipt

CertTest\WP_Baseline\Baseline_Blade.dat
CertTest\WP_Baseline\Baseline_Blade_NoDamp.dat
CertTest\WP_Baseline\Baseline_Tower.dat
CertTest\WP_Baseline\Baseline_Tower_NoDamp.dat

CertTest\WP_Baseline\WP_Baseline_InflowWind_12mps.dat
CertTest\WP_Baseline\WP_Baseline_InflowWind_ECD.dat
CertTest\WP_Baseline\WP_Baseline_AeroDyn_Dynin.dat

CertTest\WP_Baseline\Test11_ElastoDyn.dat
CertTest\WP_Baseline\Test11_ServoDyn.dat

CertTest\WP_Baseline\Test12_ElastoDyn.dat
CertTest\WP_Baseline\Test12_ServoDyn.dat

CertTest\WP_Baseline\Test13_ElastoDyn.dat
CertTest\WP_Baseline\Test13_ServoDyn.dat


CertTest\Test01.fst
CertTest\Test01.cru

CertTest\Test02.fst
CertTest\Test02.cru

CertTest\Test03.fst
CertTest\Test03.cru

CertTest\Test04.fst
CertTest\Test04.cru

CertTest\Test05.fst
CertTest\Test05.cru

CertTest\Test06.fst
CertTest\Test06.cru

CertTest\Test07.fst
CertTest\Test07.cru

CertTest\Test08.fst
CertTest\Test08.cru

CertTest\Test09.fst
CertTest\Test09.cru

CertTest\Test10.fst
CertTest\Test10.cru

CertTest\Test11.fst
CertTest\Test11.cru

CertTest\Test12.fst
CertTest\Test12.cru

CertTest\Test13.fst
CertTest\Test13.cru

CertTest\Test15.fst
CertTest\Test15.cru

CertTest\Test16.fst
CertTest\Test16.cru

CertTest\Test17.fst
CertTest\Test17.cru

CertTest\Test18.fst
CertTest\Test18.cru

CertTest\Test19.fst
CertTest\Test19.cru

CertTest\Test20.fst
CertTest\Test20.cru

CertTest\Test21.fst
CertTest\Test21.cru

CertTest\Test22.fst
CertTest\Test22.cru

CertTest\Test23.fst
CertTest\Test23.cru

CertTest\Test24.fst
CertTest\Test24.cru

CertTest\Test25.fst
CertTest\Test25.cru

CertTest\Test26.fst


CertTest\TstFiles\Test01.sts
CertTest\TstFiles\Test01.azi
CertTest\TstFiles\Test01.sum
CertTest\TstFiles\Test01.AD.sum

CertTest\TstFiles\Test02.AD.sum
CertTest\TstFiles\Test02.ED.sum
CertTest\TstFiles\Test02.sts

CertTest\TstFiles\Test03.sts
CertTest\TstFiles\Test03.azi
CertTest\TstFiles\Test03.ED.sum
CertTest\TstFiles\Test03.AD.sum

CertTest\TstFiles\Test04.sts
CertTest\TstFiles\Test04.pmf
CertTest\TstFiles\Test04.ED.sum
CertTest\TstFiles\Test04.AD.sum

CertTest\TstFiles\Test05.AD.sum
CertTest\TstFiles\Test05.ED.sum
CertTest\TstFiles\Test05.sts

CertTest\TstFiles\Test06.sum
CertTest\TstFiles\Test06.AD.sum
CertTest\TstFiles\Test06.sts

CertTest\TstFiles\Test07.ED.sum
CertTest\TstFiles\Test07.AD.sum
CertTest\TstFiles\Test07.sts
CertTest\TstFiles\Test07.pmf

CertTest\TstFiles\Test08.sts
CertTest\TstFiles\Test08.azi
CertTest\TstFiles\Test08.AD.sum
CertTest\TstFiles\Test08.ED.sum

CertTest\TstFiles\Test09.ED.sum
CertTest\TstFiles\Test09.AD.sum
CertTest\TstFiles\Test09.sts

CertTest\TstFiles\Test10.AD.sum
CertTest\TstFiles\Test10.ED.sum
CertTest\TstFiles\Test10.sts

CertTest\TstFiles\Test11.sum
CertTest\TstFiles\Test11.sts
CertTest\TstFiles\Test11.AD.sum

CertTest\TstFiles\Test12.AD.sum
CertTest\TstFiles\Test12.ED.sum
CertTest\TstFiles\Test12.sts

CertTest\TstFiles\Test13.ED.sum
CertTest\TstFiles\Test13.AD.sum
CertTest\TstFiles\Test13.sts
CertTest\TstFiles\Test13.pmf


CertTest\TstFiles\Test15.sum
CertTest\TstFiles\Test15.AD.sum
CertTest\TstFiles\Test15.sts

CertTest\TstFiles\Test16.AD.sum
CertTest\TstFiles\Test16.ED.sum
CertTest\TstFiles\Test16.sts

CertTest\TstFiles\Test17.AD.sum
CertTest\TstFiles\Test17.ED.sum
CertTest\TstFiles\Test17.sts
CertTest\TstFiles\Test17.pmf

CertTest\TstFiles\Test18.sum
CertTest\TstFiles\Test18.AD.sum
CertTest\TstFiles\Test18.sts

CertTest\TstFiles\Test19.sum
CertTest\TstFiles\Test19.AD.sum
CertTest\TstFiles\Test19.sts
CertTest\TstFiles\Test19.HD.sum

CertTest\TstFiles\Test20.sum
CertTest\TstFiles\Test20.AD.sum
CertTest\TstFiles\Test20.sts
CertTest\TstFiles\Test20.HD.sum
CertTest\TstFiles\Test20.SD.sum

CertTest\TstFiles\Test21.sum
CertTest\TstFiles\Test21.AD.sum
CertTest\TstFiles\Test21.sts
CertTest\TstFiles\Test21.HD.sum
CertTest\TstFiles\Test21.SD.sum

CertTest\TstFiles\Test22.sum
CertTest\TstFiles\Test22.AD.sum
CertTest\TstFiles\Test22.sts

CertTest\TstFiles\Test23.sum
CertTest\TstFiles\Test23.AD.sum
CertTest\TstFiles\Test23.sts

CertTest\TstFiles\Test24.sum
CertTest\TstFiles\Test24.AD.sum
CertTest\TstFiles\Test24.sts

CertTest\TstFiles\Test25.sum
CertTest\TstFiles\Test25.AD.sum
CertTest\TstFiles\Test25.sts

CertTest\TstFiles\Test26.sum
CertTest\TstFiles\Test26.AD.sum
