ArcFiles.txt
Archive.bat
ChangeLog.txt
Disclaimer.txt
HydroDynOutListParameters.xlsx

Source\FixedBottomSupportStructure.f90
Source\FloatingPlatform.f90
Source\Hydro_IO.f90
Source\HydroDyn.f90
Source\UserLine.f90
Source\Waves.f90

Source\FFTMod.f90
Source\fftpack.f

UtilityCodes\MatlabGeneratedOutput\Write_ChckOutLst.m
UtilityCodes\TestInterface\TestInterface.f90

Samples\NRELOffshrBsline5MW_HydroDyn_Monopile_RF.dat
Samples\NRELOffshrBsline5MW_Hydrodyn_TLP.ipt
Samples\HydroData\tlpmit.1
Samples\HydroData\tlpmit.3
Samples\HydroData\tlpmit.hst
