ArcFiles.txt
Archive.bat
ChangeLog.txt
Disclaimer.txt

FAST_SourceFiles.txt

Samples/LES.fdp
Samples/SampleInflowWindInput.hwc
Samples/Steady.wnd
Samples/Turb.sum
Samples/Turb.wnd
Samples/TurbSim_AD.ctp
Samples/FORMAT_FF_Sum_File.pdf

Source/InflowWind_Make.txt
Source/InflowWind_Driver.txt

TestRoutines/Fortran/ReadMe.txt
TestRoutines/Fortran/InflowWind_Test.f90
TestRoutines/Matlab/intelf12msvs2010shellopts.bat
TestRoutines/Matlab/make_InflowWind_mexFunc.m
TestRoutines/Matlab/InflowWind_gateway.f90
TestRoutines/Matlab/Test_InflowWind_mexFunc.m


