
ArcFiles.txt
Archive.bat
ChangeLog.txt
Disclaimer.txt
license.txt
README_FAST8.pdf

OutListParameters.xlsx

Compiling\Compile_FAST.bat
Compiling\makefile

Source\FAST_IO.f90
Source\FAST_Mods.f90
Source\FAST_Prog.f90

Source\PitchCntrl_ACH.f90
Source\UserSubs.f90
Source\UserVSCont_KP.f90

Source\ElastoDyn.f90
Source\ElastoDyn_Types.f90
Source\ElastoDyn_Registry.txt
Source\ServoDyn.f90
Source\ServoDyn_Types.f90
Source\ServoDyn_Registry.txt
Source\Registry_NWTC_Library.txt
Source\ModulesNotConverted\AeroDyn\*
Source\ModulesNotConverted\HydroDyn\*
Source\ModulesNotConverted\InflowWind\*


Utilities\ModeShapePolyFitting.xls
Utilities\DISCON.f90

Utilities\SimulationToolbox\FAST_Model_Conversion_MATLAB_Toolbox.pdf

Utilities\SimulationToolbox\ConvertFASTVersions\CalculateYawAndPitchRates.m
Utilities\SimulationToolbox\ConvertFASTVersions\ConvertFAST7to8.m
Utilities\SimulationToolbox\ConvertFASTVersions\TemplateFiles\V8.00.x\AD_Primary.dat
Utilities\SimulationToolbox\ConvertFASTVersions\TemplateFiles\V8.00.x\ED_Blade.dat
Utilities\SimulationToolbox\ConvertFASTVersions\TemplateFiles\V8.00.x\ED_Furling.dat
Utilities\SimulationToolbox\ConvertFASTVersions\TemplateFiles\V8.00.x\ED_Primary.dat
Utilities\SimulationToolbox\ConvertFASTVersions\TemplateFiles\V8.00.x\ED_Tower.dat
Utilities\SimulationToolbox\ConvertFASTVersions\TemplateFiles\V8.00.x\FAST_Primary.dat
Utilities\SimulationToolbox\ConvertFASTVersions\TemplateFiles\V8.00.x\OutListParameters.xlsx
Utilities\SimulationToolbox\ConvertFASTVersions\TemplateFiles\V8.00.x\SrvD_Primary.dat

Utilities\SimulationToolbox\FAST2Matlab\AeroDyn2Matlab.m
Utilities\SimulationToolbox\FAST2Matlab\Fast2Matlab.m
Utilities\SimulationToolbox\FAST2Matlab\FastLin2Matlab.m
Utilities\SimulationToolbox\FAST2Matlab\Fast_PC2Matlab.m
Utilities\SimulationToolbox\FAST2Matlab\ImportFastOut.m
Utilities\SimulationToolbox\FAST2Matlab\ParseFASTInputLine.m

Utilities\SimulationToolbox\Matlab2FAST\GenConstWindFile.m
Utilities\SimulationToolbox\Matlab2FAST\GenStepWindFile.m
Utilities\SimulationToolbox\Matlab2FAST\Matlab2AD.m
Utilities\SimulationToolbox\Matlab2FAST\Matlab2FAST.m
Utilities\SimulationToolbox\Matlab2FAST\Matlab2FASTLin.m
Utilities\SimulationToolbox\Matlab2FAST\writeUniformWindFile.m

Utilities\SimulationToolbox\Utilities\GetFastPar.m
Utilities\SimulationToolbox\Utilities\GetFullFileName.m
Utilities\SimulationToolbox\Utilities\GetOutListParameters.m
Utilities\SimulationToolbox\Utilities\GetOutListVars.m
Utilities\SimulationToolbox\Utilities\ReadFASTbinary.m
Utilities\SimulationToolbox\Utilities\ReadFASTtext.m
Utilities\SimulationToolbox\Utilities\SetFastPar.m



CertTest\ConvertFiles.m

CertTest\Bell.txt
CertTest\CertTest.bat
CertTest\DateTime.exe
CertTest\FASTCertTestCases.xls
CertTest\Pitch.ipt
CertTest\PlotCertTestResults.m
CertTest\Spd_Trq.dat
CertTest\Update.bat

CertTest\AWT_Blades.dat
CertTest\AWT_Tower.dat

CertTest\AOC_Blade.dat
CertTest\AOC_Tower.dat

CertTest\UAE_Ames_Blades.dat
CertTest\UAE_Ames_Tower.dat

CertTest\Baseline_Blade.dat
CertTest\Baseline_Blade_NoDamp.dat
CertTest\Baseline_Tower.dat
CertTest\Baseline_Tower_NoDamp.dat

CertTest\SWRT_Blade.dat
CertTest\SWRT_Furl.dat
CertTest\SWRT_Tower.dat

CertTest\AeroData\AWT27\AWT27_05.dat
CertTest\AeroData\AWT27\AWT27_15.dat
CertTest\AeroData\AWT27\AWT27_25.dat
CertTest\AeroData\AWT27\AWT27_35.dat
CertTest\AeroData\AWT27\AWT27_45.dat
CertTest\AeroData\AWT27\AWT27_55.dat
CertTest\AeroData\AWT27\AWT27_65.dat
CertTest\AeroData\AWT27\AWT27_75.dat
CertTest\AeroData\AWT27\AWT27_85.dat
CertTest\AeroData\AWT27\AWT27_95.dat

CertTest\AeroData\AOC\S814_1.dat
CertTest\AeroData\AOC\S814_15.dat
CertTest\AeroData\AOC\S812_15.dat
CertTest\AeroData\AOC\S812_2.dat
CertTest\AeroData\AOC\S813_15.dat

CertTest\AeroData\UAE_VI\cylinder.dat
CertTest\AeroData\UAE_VI\Mod_S809_129.dat
CertTest\AeroData\UAE_VI\Mod_S809_185.dat
CertTest\AeroData\UAE_VI\Mod_S809_242.dat
CertTest\AeroData\UAE_VI\Mod_S809_298.dat
CertTest\AeroData\UAE_VI\Mod_S809_354.dat
CertTest\AeroData\UAE_VI\Mod_S809_410.dat
CertTest\AeroData\UAE_VI\Mod_S809_600.dat
CertTest\AeroData\UAE_VI\Mod_S809_800.dat
CertTest\AeroData\UAE_VI\Mod_S809_Outboard.dat

CertTest\AeroData\WP_Baseline\cylinder.dat
CertTest\AeroData\WP_Baseline\S818_2703.dat
CertTest\AeroData\WP_Baseline\S825_2103.dat
CertTest\AeroData\WP_Baseline\S826_1603.dat

CertTest\AeroData\SWRT\SH3052Mod_AllRe_Elem14_Hanley.dat
CertTest\AeroData\SWRT\SH3052Mod_AllRe_Elem15_Hanley.dat
CertTest\AeroData\SWRT\SH3052Mod_AllRe_Hanley.dat
CertTest\AeroData\SWRT\TailPlate.dat

CertTest\Wind\AWT27\42m_12mps.inp
CertTest\Wind\AWT27\42m_12mps.sum
CertTest\Wind\AWT27\42m_12mps.wnd
CertTest\Wind\AWT27\NoShr_12.wnd
CertTest\Wind\AWT27\Shr12_30.wnd

CertTest\Wind\AOC\25m_12mps.inp
CertTest\Wind\AOC\25m_12mps.sum
CertTest\Wind\AOC\25m_12mps.wnd
CertTest\Wind\AOC\NoShr_12.wnd
CertTest\Wind\AOC\Shr11_30.wnd

CertTest\Wind\UAE_VI\PwrCrv.wnd
CertTest\Wind\UAE_VI\Shr11_30.wnd

CertTest\Wind\WP_Baseline\84m_12mps.inp
CertTest\Wind\WP_Baseline\84m_12mps.sum
CertTest\Wind\WP_Baseline\84m_12mps.wnd
CertTest\Wind\WP_Baseline\ECD_00PR.wnd
CertTest\Wind\WP_Baseline\IEC.ipt

CertTest\Wind\SWRT\35m_16mps.inp
CertTest\Wind\SWRT\35m_16mps.sum
CertTest\Wind\SWRT\35m_16mps.wnd
CertTest\Wind\SWRT\EDC_01NR.wnd
CertTest\Wind\SWRT\EOG_01_R.wnd
CertTest\Wind\SWRT\IEC.ipt

CertTest\Test01.fst
CertTest\Test01_ElastoDyn.dat
CertTest\Test01_ServoDyn.dat
CertTest\Test01.cru
CertTest\Test01_AD.ipt

CertTest\Test02.fst
CertTest\Test02_ElastoDyn.dat
CertTest\Test02_ServoDyn.dat
CertTest\Test02.cru
CertTest\Test02_AD.ipt

CertTest\Test03.fst
CertTest\Test03_ElastoDyn.dat
CertTest\Test03_ServoDyn.dat
CertTest\Test03.cru
CertTest\Test03_AD.ipt

CertTest\Test04.fst
CertTest\Test04_ElastoDyn.dat
CertTest\Test04_ServoDyn.dat
CertTest\Test04.cru
CertTest\Test04_AD.ipt

CertTest\Test05.fst
CertTest\Test05_ElastoDyn.dat
CertTest\Test05_ServoDyn.dat
CertTest\Test05.cru
CertTest\Test05_AD.ipt

CertTest\Test06.fst
CertTest\Test06_ElastoDyn.dat
CertTest\Test06_ServoDyn.dat
CertTest\Test06.cru
CertTest\Test06_AD.ipt

CertTest\Test07.fst
CertTest\Test07_ElastoDyn.dat
CertTest\Test07_ServoDyn.dat
CertTest\Test07.cru
CertTest\Test07_AD.ipt

CertTest\Test08.fst
CertTest\Test08_ElastoDyn.dat
CertTest\Test08_ServoDyn.dat
CertTest\Test08.cru
CertTest\Test08_AD.ipt

CertTest\Test09.fst
CertTest\Test09_ElastoDyn.dat
CertTest\Test09_ServoDyn.dat
CertTest\Test09.cru
CertTest\Test09_AD.ipt

CertTest\Test10.fst
CertTest\Test10_ElastoDyn.dat
CertTest\Test10_ServoDyn.dat
CertTest\Test10.cru
CertTest\Test10_AD.ipt

CertTest\Test11.fst
CertTest\Test11_ElastoDyn.dat
CertTest\Test11_ServoDyn.dat
CertTest\Test11.cru
CertTest\Test11_AD.ipt

CertTest\Test12.fst
CertTest\Test12_ElastoDyn.dat
CertTest\Test12_ServoDyn.dat
CertTest\Test12.cru
CertTest\Test12_AD.ipt

CertTest\Test13.fst
CertTest\Test13_ElastoDyn.dat
CertTest\Test13_ServoDyn.dat
CertTest\Test13.cru
CertTest\Test13_AD.ipt


CertTest\Test15.fst
CertTest\Test15_ElastoDyn.dat
CertTest\Test15_ServoDyn.dat
CertTest\Test15.cru
CertTest\Test15_AD.ipt

CertTest\Test16.fst
CertTest\Test16_ElastoDyn.dat
CertTest\Test16_ServoDyn.dat
CertTest\Test16.cru
CertTest\Test16_AD.ipt

CertTest\Test17.fst
CertTest\Test17_ElastoDyn.dat
CertTest\Test17_ServoDyn.dat
CertTest\Test17.cru
CertTest\Test17_AD.ipt

CertTest\TstFiles\Test01_ElastoDyn.sum
CertTest\TstFiles\Test01.sts
CertTest\TstFiles\Test01.azi

CertTest\TstFiles\Test02_ElastoDyn.sum
CertTest\TstFiles\Test02.sts

CertTest\TstFiles\Test03_ElastoDyn.sum
CertTest\TstFiles\Test03.sts
CertTest\TstFiles\Test03.azi

CertTest\TstFiles\Test04_ElastoDyn.sum
CertTest\TstFiles\Test04.sts
CertTest\TstFiles\Test04.pmf

CertTest\TstFiles\Test05_ElastoDyn.sum
CertTest\TstFiles\Test05.sts

CertTest\TstFiles\Test06_ElastoDyn.sum
CertTest\TstFiles\Test06.sts

CertTest\TstFiles\Test07_ElastoDyn.sum
CertTest\TstFiles\Test07.sts
CertTest\TstFiles\Test07.pmf

CertTest\TstFiles\Test08_ElastoDyn.sum
CertTest\TstFiles\Test08.sts
CertTest\TstFiles\Test08.azi

CertTest\TstFiles\Test09_ElastoDyn.sum
CertTest\TstFiles\Test09.sts

CertTest\TstFiles\Test10_ElastoDyn.sum
CertTest\TstFiles\Test10.sts

CertTest\TstFiles\Test11_ElastoDyn.sum
CertTest\TstFiles\Test11.sts

CertTest\TstFiles\Test12_ElastoDyn.sum
CertTest\TstFiles\Test12.sts

CertTest\TstFiles\Test13_ElastoDyn.sum
CertTest\TstFiles\Test13.sts
CertTest\TstFiles\Test13.pmf


CertTest\TstFiles\Test15_ElastoDyn.sum
CertTest\TstFiles\Test15.sts

CertTest\TstFiles\Test16_ElastoDyn.sum
CertTest\TstFiles\Test16.sts

CertTest\TstFiles\Test17_ElastoDyn.sum
CertTest\TstFiles\Test17.sts
CertTest\TstFiles\Test17.pmf

