

changelog.txt
Disclaimer.txt
license.txt
NOTICE.txt

Documentation\MorisonOutListParameters.xlsx
Documentation\WAMITOutListParameters.xlsx
Documentation\HydroDynOutListParameters.xlsx
Documentation\HydroDyn_Manual.pdf

Source\HydroDyn_DriverCode.f90
Source\RegistryFiles\CreateTypes.bat 
Source\RegistryFiles\include\Registry_NWTC_Library.txt 
Source\dependencies\NetLib\NWTC_LAPACK.f90    
Source\dependencies\NWTC_Library\DoubPrec.f90  
Source\dependencies\NWTC_Library\ModMesh.f90  
Source\dependencies\NWTC_Library\ModMesh_Mapping.f90  
Source\dependencies\NWTC_Library\ModMesh_Types.f90  
Source\dependencies\NWTC_Library\NWTC_Base.f90  
Source\dependencies\NWTC_Library\NWTC_IO.f90  
Source\dependencies\NWTC_Library\NWTC_Library.f90  
Source\dependencies\NWTC_Library\NWTC_Library_Types.f90  
Source\dependencies\NWTC_Library\NWTC_Num.f90  
Source\dependencies\NWTC_Library\Registry_NWTC_Library.txt  
Source\dependencies\NWTC_Library\SingPrec.f90  
Source\dependencies\NWTC_Library\SysGnuLinux.f90  
Source\dependencies\NWTC_Library\SysGnuWin.f90  
Source\dependencies\NWTC_Library\SysIFL.f90  
Source\dependencies\NWTC_Library\SysIVF.f90  
Source\dependencies\NWTC_Library\SysIVF_Labview.f90  
Source\dependencies\NWTC_Library\SysMatlab.f90  

Samples\RunSamples.bat
Samples\NRELOffshrBsline5MW_OC4Jacket_HydroDyn.dvr
Samples\NRELOffshrBsline5MW_OC3Tripod_HydroDyn.dvr
Samples\NRELOffshrBsline5MW_OC3Monopile_HydroDyn.dvr
Samples\NRELOffshrBsline5MW_OC3Hywind_HydroDyn.dvr
Samples\NRELOffshrBsline5MW_MIT_NREL_TLP_HydroDyn.dvr
Samples\NRELOffshrBsline5MW_ITIBarge4_HydroDyn.dvr
Samples\NRELOffshrBsline5MW_OC4Jacket_HydroDyn.dat
Samples\NRELOffshrBsline5MW_OC3Tripod_HydroDyn.dat
Samples\NRELOffshrBsline5MW_OC3Monopile_HydroDyn.dat
Samples\NRELOffshrBsline5MW_OC3Hywind_HydroDyn.dat
Samples\NRELOffshrBsline5MW_MIT_NREL_TLP_HydroDyn.dat
Samples\NRELOffshrBsline5MW_ITIBarge4_HydroDyn.dat
Samples\NREL_Results\NRELOffshrBsline5MW_OC4Jacket_HydroDyn.HD.out
Samples\NREL_Results\NRELOffshrBsline5MW_OC3Tripod_HydroDyn.HD.out
Samples\NREL_Results\NRELOffshrBsline5MW_OC3Monopile_HydroDyn.HD.out
Samples\NREL_Results\NRELOffshrBsline5MW_OC3Hywind_HydroDyn.HD.out
Samples\NREL_Results\NRELOffshrBsline5MW_MIT_NREL_TLP_HydroDyn.HD.out
Samples\NREL_Results\NRELOffshrBsline5MW_ITIBarge4_HydroDyn.HD.out
Samples\NREL_Results\NRELOffshrBsline5MW_OC4Jacket_HydroDyn.HD.sum
Samples\NREL_Results\NRELOffshrBsline5MW_OC3Tripod_HydroDyn.HD.sum
Samples\NREL_Results\NRELOffshrBsline5MW_OC3Monopile_HydroDyn.HD.sum
Samples\NREL_Results\NRELOffshrBsline5MW_OC3Hywind_HydroDyn.HD.sum
Samples\NREL_Results\NRELOffshrBsline5MW_MIT_NREL_TLP_HydroDyn.HD.sum
Samples\NREL_Results\NRELOffshrBsline5MW_ITIBarge4_HydroDyn.HD.sum

Samples\HydroData\tlpmit.hst
Samples\HydroData\tlpmit.3
Samples\HydroData\tlpmit.1
Samples\HydroData\spar.ss
Samples\HydroData\spar.3
Samples\HydroData\spar.1
Samples\HydroData\spar.hst
Samples\HydroData\marin_semi.hst
Samples\HydroData\marin_semi.3
Samples\HydroData\marin_semi.1
Samples\HydroData\barge.ss
Samples\HydroData\barge.hst
Samples\HydroData\barge.3
Samples\HydroData\barge.1

CertTest\CertTest.bat
CertTest\Test_001.dvr
CertTest\Test_001.dat
CertTest\Test_002.dvr
CertTest\Test_002.dat
CertTest\NREL_Results\Test_001.HD.out
CertTest\NREL_Results\Test_001.HD.sum
CertTest\NREL_Results\Test_002.HD.out
CertTest\NREL_Results\Test_002.HD.sum

Utilities\Simulation Toolbox\ConvertFASTversions\ConvertHDto2_01_00.m  
Utilities\Simulation Toolbox\ConvertFASTversions\ConvertHDto2_02_00.m  
Utilities\Simulation Toolbox\ConvertFASTversions\InputConversions\newInputs_HD_v2_00_03.m  
Utilities\Simulation Toolbox\ConvertFASTversions\InputConversions\newInputs_HD_v2_00_05.m  
Utilities\Simulation Toolbox\ConvertFASTversions\InputConversions\newInputs_HD_v2_01_00.m  
Utilities\Simulation Toolbox\ConvertFASTversions\InputConversions\newInputs_HD_v2_02_00.m  
Utilities\Simulation Toolbox\ConvertFASTversions\TemplateFiles\HDv2.01.00.dat  
Utilities\Simulation Toolbox\ConvertFASTversions\TemplateFiles\HDv2.02.00.dat  
Utilities\Simulation Toolbox\FAST2MATLAB\HD2Matlab.m  
Utilities\Simulation Toolbox\FAST2MATLAB\ImportFastOut.m  
Utilities\Simulation Toolbox\FAST2MATLAB\ParseFASTInputLine.m  
Utilities\Simulation Toolbox\MATLAB2FAST\Matlab2HD.m   
Utilities\Simulation Toolbox\Utilities\CompareMatrices.m  
Utilities\Simulation Toolbox\Utilities\GetFastPar.m  
Utilities\Simulation Toolbox\Utilities\GetFullFileName.m  
Utilities\Simulation Toolbox\Utilities\GetOutListParameters.m  
Utilities\Simulation Toolbox\Utilities\GetOutListVars.m  
Utilities\Simulation Toolbox\Utilities\getPSD.m  
Utilities\Simulation Toolbox\Utilities\ReadFASTbinary.m  
Utilities\Simulation Toolbox\Utilities\ReadFASTmappingData.m  
Utilities\Simulation Toolbox\Utilities\ReadFASTmesh.m  
Utilities\Simulation Toolbox\Utilities\ReadFASTtext.m  
Utilities\Simulation Toolbox\Utilities\readHDInputMesh.m  
Utilities\Simulation Toolbox\Utilities\ReadSubDynSummary.m  
Utilities\Simulation Toolbox\Utilities\SetFastPar.m  
