ArcMaint.txt

Source\RegistryEntries.xlsx


CertTest\Test19_withIce.fst
CertTest\5MW_Baseline\NRELOffshrBsline5MW_OC3Monopile_HydroDyn_withIce.dat

CertTest\TstFiles\Test??.*outb
CertTest\TstFiles\Test??.*out
CertTest\TstFiles\Test??.*sum
