bin\HydroDynDriver_win32.exe
bin\Registry_win32.exe
