Archive.bat

bin\TurbSim_Win32.exe
bin\TurbSim_x64.exe

CertTest\DateTime.exe

