bin\Registry_win32.exe
bin\AeroDyn_Driver_Win32.exe