HydroDyn v2.00.00a-gjh  03-Apr-2013

-Complete rewrite of HydroDyn

HydroDyn v2.00.01a-gjh 03-Oct-2013
-many bug fixes
-added heave coefficients and calculations
-added user-supplied preload, stiffness, and damping
-new WvLowCOff and WvHiCOff inputs
-added mass load calculation within hydrodyn
-many additions to the summary file
