cff-version: 1.0.0
message: "If you use this software, please cite it as below."
authors:
- family-names: Schena
  given-names: Lorenzo
- family-names: Branlard
given-names: Emmanuel
- family-names: Jonkman
  given-names: Jason
- family-names: Platt
  given-names: Andrew
- family-names: Slaughter
  given-names: Derek
title: "OpenFAST ZMQ mod - temporary reference"
version: 1.0
identifiers:
  - type: doi
date-released: 2024-02-01
