Source\Conv_Radiation.f90
Source\Conv_Radiation_Types.f90
Source\Current.f90
Source\Current_Types.f90
Source\HydroDyn.f90
Source\HydroDyn_Input.f90
Source\HydroDyn_Output.f90
Source\HydroDyn_Types.f90
Source\Morison.f90
Source\Morison_Output.f90
Source\Morison_Types.f90
Source\SS_Radiation.f90
Source\SS_Radiation_Types.f90
Source\WAMIT.f90
Source\WAMIT_Interp.f90
Source\WAMIT_Output.f90
Source\WAMIT_Types.f90
Source\WAMIT2.f90
Source\WAMIT2_Output.f90
Source\WAMIT2_Types.f90
Source\Waves.f90
Source\Waves_Types.f90
Source\Waves2.f90
Source\Waves2_Types.f90

Source\RegistryFiles\Current.txt
Source\RegistryFiles\Waves.txt
Source\RegistryFiles\Waves2.txt
Source\RegistryFiles\SS_Radiation.txt
Source\RegistryFiles\Conv_Radiation.txt
Source\RegistryFiles\WAMIT.txt
Source\RegistryFiles\WAMIT2.txt
Source\RegistryFiles\Morison.txt
Source\RegistryFiles\HydroDyn.txt
