*********
FAST Release Date: Monday, September 30, 2013

Other components need to be ready to go before the FAST release date
   Can we shoot for Friday, September 27?
*********


This is a list of things that we need to do before our next release. Please update as necessary.
-------------------------------------------------
All components:
-------------------------------------------------
* I'd like to change the licenses to Apache 2.0 wherever we can.
* Basic documentation (lists of limitations, etc)
* check for memory leaks
* standardize names/locations for modules' output, summary, and echo files
* TESTING!!!!!


-------------------------------------------------
FAST
-------------------------------------------------
* subdyn integration
* remove greg's debug switches
* CertTest: need updated input files from SubDyn so that the 5MW models work

* get version numbers (maybe from SVN) on all the dependency source code
* update matlab script for conversion to this version [test it] -> add new line for AeroDyn
* update change log
* update makefile
* update notice.txt
* modify OutListParameters.xlsx
* add registry dependency in project (if NWTC Library changes, basically everything that needs the -I)
* renumber tests 20:22 to + 2 = 22:24
* cert test scale factor needs units ()

* Calculate HD and SD portions of the Jacobian once only
* bug in plotting results for TLP FairxTen tensions
* do we want the executables generated by makefile, etc in the bin folder?
* remove added mass from mesh

* document these issues:
  - you may have to decrease your time step
  - your code will run slower even if you don't change your time step

  -

-------------------------------------------------
ElastoDyn
-------------------------------------------------
* Future work:
  + need to discuss new meshes for AeroDyn (which AeroDyn doesn't really use).
  + Fix blade root/tip as well as tower base/top so they are used.

-------------------------------------------------
ServoDyn
-------------------------------------------------
* update input switches (document that DLL is 5, make the others consistant [or wait until next release]?)


-------------------------------------------------
AeroDyn
-------------------------------------------------
*mlb is adding tower aerodynamic forces
* add WriteOutput (?)

-------------------------------------------------
InflowWind
-------------------------------------------------

-------------------------------------------------
HydroDyn
-------------------------------------------------

-------------------------------------------------
SubDyn
-------------------------------------------------
* line added to InitOutputType:
typedef	^	InitOutputType	ProgDesc	Ver	-	-	-	"This module's name, version, and date"	-


-------------------------------------------------
MAP
-------------------------------------------------

-------------------------------------------------
NWTC Library
-------------------------------------------------
* MeshMapping: Transfer_Line2_to_Line2 algorithm needs updating
* Mesh documentation (maybe not for this release)


-------------------------------------------------
Registry
-------------------------------------------------
* more documentation


-------------------------------------------------
Web site
-------------------------------------------------
* reorganize...