*********
FAST Release Date: Monday, September 30, 2013

*********


This is a list of things that we need to do before our next release. Please update as necessary.
-------------------------------------------------
All components:
-------------------------------------------------
* check for fft and LAPACK licensing requirements...
* Basic documentation (lists of limitations, etc)

* TESTING!!!!!

* make sure aerodyn's elm file gets created!
* add check for ad in pc algorithm

-------------------------------------------------
FAST
-------------------------------------------------
* subdyn integration
* remove greg's debug switches
* CertTest: need updated input files from SubDyn so that the 5MW models work

* add file with version numbers for all dependency code. maybe an xls file that keeps versions released together (and links?)
* update matlab script for conversion to this version [test it] -> add new line for AeroDyn
* update change log
* update makefile
* update notice.txt



* document these issues:
  - you may have to decrease your time step
  - your code will run slower even if you don't change your time step
  - licensing

future work:
* add registry dependency in project (if NWTC Library changes, basically everything that needs the -I)
* standardize names/locations for modules' output, summary, and echo files
* do we want the executables generated by makefile, etc in the bin folder?

-------------------------------------------------
ElastoDyn
-------------------------------------------------
* Future work:
  + need to discuss new meshes for AeroDyn (which AeroDyn doesn't really use).
  + Fix blade root/tip as well as tower base/top so they are used.

-------------------------------------------------
ServoDyn
-------------------------------------------------
Future work:
* update input switches (document that DLL is 5, make the others consistant [or wait until next release]?)


-------------------------------------------------
AeroDyn
-------------------------------------------------
Future work:
* add WriteOutput
* rename AeroDyn's RootName.opt file to RootName_AeroDyn.sum [this will change the certtest and arcfiles]

-------------------------------------------------
InflowWind
-------------------------------------------------

-------------------------------------------------
HydroDyn
-------------------------------------------------
* figure out why the wave elevations don't exactly match FAST v7.2 (see tests 22-24)

-------------------------------------------------
SubDyn
-------------------------------------------------
* line added to InitOutputType:
typedef	^	InitOutputType	ProgDesc	Ver	-	-	-	"This module's name, version, and date"	-


-------------------------------------------------
MAP
-------------------------------------------------

-------------------------------------------------
NWTC Library
-------------------------------------------------
* MeshMapping: Transfer_Line2_to_Line2 algorithm needs updating
* Mesh documentation (maybe not for this release)


Update documentation stored there... (add mesh documentation)


-------------------------------------------------
Registry
-------------------------------------------------
* more documentation


-------------------------------------------------
Web site
-------------------------------------------------
* reorganize...