*********
FAST Release Date: Monday, September 30, 2013

Other components need to be ready to go before the FAST release date
   Can we shoot for Friday, September 27?
*********


This is a list of things that we need to do before our next release. Please update as necessary.
-------------------------------------------------
All components:
-------------------------------------------------
* I'd like to change the licenses to Apache 2.0 wherever we can.
* Basic documentation (lists of limitations, etc)
* check for memory leaks
* standardize names/locations for modules' output, summary, and echo files
* TESTING!!!!!

-------------------------------------------------
FAST
-------------------------------------------------
* subdyn integration
* remove greg's debug switches
* CertTest: need updated input files from SubDyn so that the 5MW models work
* Fix issues with P-C algorithm
   (1) apparently I misinterpreted the need for the extrapolated outputs.
   (2) Mike/Jason need to agree on path forward with direct feedthrough issues

* get version numbers (maybe from SVN) on all the dependency source code
* update matlab script for conversion to this version
* update change log
* update makefile


-------------------------------------------------
ElastoDyn
-------------------------------------------------
* need to discuss new meshes with Jason

-------------------------------------------------
ServoDyn
-------------------------------------------------
* update input switches (document that DLL is 5, make the others consistant [or wait until next release]?)


-------------------------------------------------
AeroDyn
-------------------------------------------------
*mlb is adding tower aerodynamic forces

-------------------------------------------------
InflowWind
-------------------------------------------------

-------------------------------------------------
HydroDyn
-------------------------------------------------

-------------------------------------------------
SubDyn
-------------------------------------------------
Have we gotten rid of the non-NREL code?

-------------------------------------------------
MAP
-------------------------------------------------

-------------------------------------------------
NWTC Library
-------------------------------------------------
* MeshMapping: Transfer_Line2_to_Line2 algorithm needs updating
* Mesh documentation (maybe not for this release)


-------------------------------------------------
Registry
-------------------------------------------------
* more documentation


-------------------------------------------------
Web site
-------------------------------------------------
* reorganize...