*********
FAST Release Date: Monday, June 30, 2014

*********

*** run dependency walker on all dlls distributed (MAP, discon) ***
*** check that AddedMassMatrix isn't output
*** verify compiler directives are the ones I want on

check SD input files in SD driver certtest folders (do they work with latest version?)




This is a list of things that we need to do before our next release. Please update as necessary.
-------------------------------------------------
All components:
-------------------------------------------------
* check for fft and LAPACK licensing requirements...
* ranlux license?

-------------------------------------------------
Potential optimizations:
-------------------------------------------------
* Replace MATMUL() with DGEMM/SGEMM  from BLAS; this will also replace TRANSPOSE in the equations   [should help reduce stack issues?]
* Replace "WHERE / ENDWHERE" construct

-------------------------------------------------
future work:
-------------------------------------------------
* do we want the executables generated by makefile, etc in the bin folder?

-------------------------------------------------
ElastoDyn
-------------------------------------------------
* Future work:
  + need to discuss new meshes for AeroDyn (which AeroDyn doesn't really use).
  + Fix blade root/tip as well as tower base/top so they are used.

-------------------------------------------------
ServoDyn
-------------------------------------------------
Future work:
* update input switches (document that DLL is 5, make the others consistant [or wait until next release]?)

-------------------------------------------------
AeroDyn
-------------------------------------------------
Future work:
* add WriteOutput

-------------------------------------------------
NWTC Library
-------------------------------------------------

* Mesh documentation (maybe not for this release)

-------------------------------------------------
Registry
-------------------------------------------------
* more documentation

