Source/AeroDyn.f90
Source/AeroDyn_Types.f90
Source/AeroSubs.f90
Source/GenSubs.f90
Source/Registry-AD.txt

Source/DWM/DWM.f90
Source/DWM/DWM_Types.f90
Source/DWM/DWM_Wake_Sub_ver2.f90
Source/DWM/Registry-DWM.txt
