Source/AeroDyn.f90
Source/AeroDyn_Types.f90
Source/AeroSubs.f90
Source/GenSubs.f90
Source/Registry-AD.txt
