
These predictions were generated by HydroDyn on 25-Oct-2018 at 16:39:49.

    Time            Wave1Elev
   (sec)                  (m)
    0.0000          -0.0000e+01
    0.2500          -1.0000e+01
    0.5000          -0.0000e+01
    0.7500           1.0000e+01
