###################################################################################################################################
# Registry for ElastoDyn in the FAST Modularization Framework
# This Registry file is used to create MODULE ElastoDyn_Types  which contains all of the user-defined types needed in ElastoDyn.
# It also contains copy, destroy, pack, and unpack routines associated with each defined data types.
# See the NWTC Programmer's Handbook for further information on the format/contents of this file.
#
# Entries are of the form
# <keyword>	<ModuleName/ModName>	<TypeName>	<FieldType>	<FieldName>	<Dims>	<IO>	<DNAME>	<DESCRIP>	<UNITS>
#
# Use ^ as a shortcut for the value in the same column from the previous line.
###################################################################################################################################
# ...... Include files (definitions from NWTC Library) ............................................................................
include	Registry_NWTC_Library.txt

# ElastoDyn Constants
param	ElastoDyn/ED	-	IntKi	ED_NMX	-	4	-	"Used in updating predictor-corrector values (size of state history)"	-


# ..... Initialization data .......................................................................................................
# Define inputs that the initialization routine may need here:
typedef	ElastoDyn/ED	InitInputType	CHARACTER(1024)	InputFile	-	-	-	"Name of the input file"	-
typedef	^	InitInputType	Logical	Linearize	-	.FALSE.	-	"Flag that tells this module if the glue code wants to linearize."	-
typedef	^	InitInputType	CHARACTER(1024)	ADInputFile	-	-	-	"Name of the AeroDyn input file (in this verison, that is where we'll get the blade mesh info"	-
typedef	^	InitInputType	LOGICAL	CompElast	-	-	-	"flag to determine if ElastoDyn is computing blade loads (true) or BeamDyn is (false)"	-
typedef	^	InitInputType	CHARACTER(1024)	RootName	-	-	-	"RootName for writing output files"
typedef ^   InitInputType   ReKi Gravity	-	-	-	"Gravitational acceleration"	m/s^2
typedef ^   InitInputType   IntKi MHK     -   -   -   "MHK turbine type switch"   -
typedef ^   InitInputType   ReKi WtrDpth -  -   -    "Water depth" m

# Define outputs from the initialization routine here:
typedef	^	InitOutputType	CHARACTER(ChanLen)	WriteOutputHdr	{:}	-	-	"Names of the output-to-file channels"	-
typedef	^	InitOutputType	CHARACTER(ChanLen)	WriteOutputUnt	{:}	-	-	"Units of the output-to-file channels"	-
typedef	^	InitOutputType	ProgDesc	Ver	-	-	-	"This module's name, version, and date"	-
typedef	^	InitOutputType	IntKi	NumBl	-	-	-	"Number of blades on the turbine"	-
typedef	^	InitOutputType	ReKi	BlPitch	{:}	-	-	"Initial blade pitch angles"	radians
typedef	^	InitOutputType	ReKi	BladeLength	-	-	-	"Blade length (for AeroDyn)"	meters
typedef	^	InitOutputType	ReKi	TowerHeight	-	-	-	"Tower Height"	meters
typedef	^	InitOutputType	ReKi	TowerBaseHeight	-	-	-	"Tower Base Height"	meters
typedef	^	InitOutputType	ReKi	HubHt	-	-	-	"Height of the hub"	meters
typedef	^	InitOutputType	ReKi	BldRNodes	{:}	-	-	"Radius to analysis nodes relative to hub ( 0 < RNodes(:) < BldFlexL )"
typedef	^	InitOutputType	ReKi	TwrHNodes	{:}	-	-	"Location of variable-spaced tower nodes (relative to the tower rigid base height"
typedef	^	InitOutputType	ReKi	PlatformPos	{6}	-	-	"Initial platform position (6 DOFs)"
typedef	^	InitOutputType	ReKi	TwrBaseRefPos	{3}	-	-	"initial position of the tower base (for SrvD)"	m
typedef	^	InitOutputType	R8Ki	TwrBaseTransDisp	{3}	-	-	"initial displacement of the tower base (for SrvD)"	m
typedef	^	InitOutputType	R8Ki	TwrBaseRefOrient	{3}{3}	-	-	"reference orientation of the tower base (for SrvD)"
typedef	^	InitOutputType	R8Ki	TwrBaseOrient	{3}{3}	-	-	"initial orientation of the tower base (for SrvD)"
typedef	^	InitOutputType	ReKi	HubRad	-	-	-	"Preconed hub radius (distance from the rotor apex to the blade root)"	m
typedef	^	InitOutputType	ReKi	RotSpeed	-	-	-	"Initial or fixed rotor speed"	rad/s
typedef	^	InitOutputType	LOGICAL	isFixed_GenDOF	-	-	-	"whether the generator is fixed or free" -
typedef	^	InitOutputType	CHARACTER(LinChanLen)	LinNames_y	{:}	-	-	"Names of the outputs used in linearization"	-
typedef	^	InitOutputType	CHARACTER(LinChanLen)	LinNames_x	{:}	-	-	"Names of the continuous states used in linearization"	-
typedef	^	InitOutputType	CHARACTER(LinChanLen)	LinNames_u	{:}	-	-	"Names of the inputs used in linearization"	-
typedef	^	InitOutputType	LOGICAL	RotFrame_y	{:}	-	-	"Flag that tells FAST/MBC3 if the outputs used in linearization are in the rotating frame"	-
typedef	^	InitOutputType	LOGICAL	RotFrame_x	{:}	-	-	"Flag that tells FAST/MBC3 if the continuous states used in linearization are in the rotating frame"	-
typedef	^	InitOutputType	IntKi	DerivOrder_x {:}	-	-	"Integer that tells FAST/MBC3 the maximum derivative order of continuous states used in linearization"	-
typedef	^	InitOutputType	LOGICAL	RotFrame_u	{:}	-	-	"Flag that tells FAST/MBC3 if the inputs used in linearization are in the rotating frame"	-
typedef	^	InitOutputType	LOGICAL	IsLoad_u	{:}	-	-	"Flag that tells FAST if the inputs used in linearization are loads (for preconditioning matrix)" -

# ..... Blade Input file data ...........................................................................................................
typedef	ElastoDyn/ED	BladeInputData	IntKi	NBlInpSt	-	-	-	"Number of blade input stations"	-
typedef	^	BladeInputData	ReKi	BlFract	{:}	-	-	"Blade fractional radius for distributed input data"	-
typedef	^	BladeInputData	ReKi	PitchAx	{:}	-	-	"Pitch axis for distributed input data"	-
typedef	^	BladeInputData	ReKi	StrcTwst	{:}	-	-	"Structural twist for distributed input data"	radians
typedef	^	BladeInputData	ReKi	BMassDen	{:}	-	-	"Blade mass density for distributed input data"
typedef	^	BladeInputData	ReKi	FlpStff	{:}	-	-	"Blade flap stiffness for distributed input data"
typedef	^	BladeInputData	ReKi	EdgStff	{:}	-	-	"Blade edge stiffness for distributed input data"
typedef	^	BladeInputData	ReKi	BldFlDmp	2	-	-	"Blade structural damping ratios in flapwise direction"
typedef	^	BladeInputData	ReKi	BldEdDmp	1	-	-	"Blade structural damping ratios in edgewise direction"
typedef	^	BladeInputData	ReKi	FlStTunr	2	-	-	"Blade flapwise modal stiffness tuners (input)"
typedef	^	BladeInputData	ReKi	BldFl1Sh	{:}	-	-	"Blade-flap-mode-1 shape coefficients"
typedef	^	BladeInputData	ReKi	BldFl2Sh	{:}	-	-	"Blade-flap-mode-2 shape coefficients"
typedef	^	BladeInputData	ReKi	BldEdgSh	{:}	-	-	"Blade-edge-mode shape coefficients"


# ..... Blade Mesh Input file data ...........................................................................................................
typedef	ElastoDyn/ED	ED_BladeMeshInputData	IntKi	BldNodes	-	-	-	"Number of blade nodes used for analysis"	-
typedef	^	ED_BladeMeshInputData	ReKi	RNodes	{:}	-	-	"Radius to analysis nodes relative to hub ( 0 < RNodes(:) < BldFlexL )"
typedef	^	ED_BladeMeshInputData	ReKi	AeroTwst	{:}	-	-	"Aerodynamic twist of the blade at the analysis nodes"	radians
typedef	^	ED_BladeMeshInputData	ReKi	Chord	{:}	-	-	"Chord of the blade at the analysis nodes"


# ..... Input file data ...........................................................................................................
# This is data defined in the Input File for this module (or could otherwise be passed in)
# ..... Primary Input file data ...........................................................................................................
typedef	ElastoDyn/ED	ED_InputFile	DbKi	DT	-	-	-	"Requested integration time for ElastoDyn"	seconds
typedef	^	ED_InputFile	LOGICAL	FlapDOF1	-	-	-	"First flapwise blade mode DOF"	-
typedef	^	ED_InputFile	LOGICAL	FlapDOF2	-	-	-	"Second flapwise blade mode DOF"	-
typedef	^	ED_InputFile	LOGICAL	EdgeDOF	-	-	-	"Edgewise blade mode DOF"	-
typedef	^	ED_InputFile	LOGICAL	TeetDOF	-	-	-	"Rotor-teeter DOF"	-
typedef	^	ED_InputFile	LOGICAL	DrTrDOF	-	-	-	"Drivetrain rotational-flexibility DOF"	-
typedef	^	ED_InputFile	LOGICAL	GenDOF	-	-	-	"Generator DOF"	-
typedef	^	ED_InputFile	LOGICAL	YawDOF	-	-	-	"Nacelle-yaw DOF"	-
typedef	^	ED_InputFile	LOGICAL	TwFADOF1	-	-	-	"First tower fore-aft bending-mode DOF"	-
typedef	^	ED_InputFile	LOGICAL	TwFADOF2	-	-	-	"Second tower fore-aft bending-mode DOF"	-
typedef	^	ED_InputFile	LOGICAL	TwSSDOF1	-	-	-	"First tower side-to-side bending-mode DOF"	-
typedef	^	ED_InputFile	LOGICAL	TwSSDOF2	-	-	-	"Second tower side-to-side bending-mode DOF"	-
typedef	^	ED_InputFile	LOGICAL	PtfmSgDOF	-	-	-	"Platform horizontal surge translation DOF"	-
typedef	^	ED_InputFile	LOGICAL	PtfmSwDOF	-	-	-	"Platform horizontal sway translation DOF"	-
typedef	^	ED_InputFile	LOGICAL	PtfmHvDOF	-	-	-	"Platform vertical heave translation DOF"	-
typedef	^	ED_InputFile	LOGICAL	PtfmRDOF	-	-	-	"Platform roll tilt rotation DOF"	-
typedef	^	ED_InputFile	LOGICAL	PtfmPDOF	-	-	-	"Platform pitch tilt rotation DOF"	-
typedef	^	ED_InputFile	LOGICAL	PtfmYDOF	-	-	-	"Platform yaw rotation DOF"	-
typedef	^	ED_InputFile	ReKi	OoPDefl	-	-	-	"Initial out-of-plane blade-tip displacement"	meters
typedef	^	ED_InputFile	ReKi	IPDefl	-	-	-	"Initial in-plane blade-tip deflection"	meters
typedef	^	ED_InputFile	ReKi	BlPitch	{:}	-	-	"Initial blade pitch angles"	radians
typedef	^	ED_InputFile	ReKi	TeetDefl	-	-	-	"Initial teeter angle"	radians
typedef	^	ED_InputFile	R8Ki	Azimuth	-	-	-	"Initial azimuth angle for blade 1"	radians
typedef	^	ED_InputFile	ReKi	RotSpeed	-	-	-	"Initial rotor speed"	rad/s
typedef	^	ED_InputFile	ReKi	NacYaw	-	-	-	"Initial nacelle-yaw angle"	radians
typedef	^	ED_InputFile	ReKi	TTDspFA	-	-	-	"Initial fore-aft tower-top displacement"	meters
typedef	^	ED_InputFile	ReKi	TTDspSS	-	-	-	"Initial side-to-side tower-top displacement"	meters
typedef	^	ED_InputFile	ReKi	PtfmSurge	-	-	-	"Initial horizontal surge translational displacement of platform"	meters
typedef	^	ED_InputFile	ReKi	PtfmSway	-	-	-	"Initial horizontal sway translational displacement of platform"	meters
typedef	^	ED_InputFile	ReKi	PtfmHeave	-	-	-	"Initial vertical heave translational displacement of platform"	meters
typedef	^	ED_InputFile	ReKi	PtfmRoll	-	-	-	"Initial roll tilt rotational displacement of platform"	radians
typedef	^	ED_InputFile	ReKi	PtfmPitch	-	-	-	"Initial pitch tilt rotational displacement of platform"	radians
typedef	^	ED_InputFile	ReKi	PtfmYaw	-	-	-	"Initial yaw rotational displacement of platform"	radians
typedef	^	ED_InputFile	IntKi	NumBl	-	-	-	"Number of blades"	-
typedef	^	ED_InputFile	ReKi	TipRad	-	-	-	"Preconed blade-tip radius (distance from the rotor apex to the blade tip)"	meters
typedef	^	ED_InputFile	ReKi	HubRad	-	-	-	"Preconed hub radius (distance from the rotor apex to the blade root)"	meters
typedef	^	ED_InputFile	ReKi	PreCone	{:}	-	-	"Rotor precone angles"	radians
typedef	^	ED_InputFile	ReKi	HubCM	-	-	-	"Distance from rotor apex to hub mass"	meters
typedef	^	ED_InputFile	ReKi	UndSling	-	-	-	"Undersling length"	meters
typedef	^	ED_InputFile	ReKi	Delta3	-	-	-	"Delta-3 angle for teetering rotors"	radians
typedef	^	ED_InputFile	R8Ki	AzimB1Up	-	-	-	"Azimuth value to use for I/O when blade 1 points up"	radians
typedef	^	ED_InputFile	ReKi	OverHang	-	-	-	"Distance from yaw axis to rotor apex or teeter pin"	meters
typedef	^	ED_InputFile	ReKi	ShftGagL	-	-	-	"Distance from hub or teeter pin to shaft strain gages"	meters
typedef	^	ED_InputFile	ReKi	ShftTilt	-	-	-	"Rotor shaft tilt angle"	radians
typedef	^	ED_InputFile	ReKi	NacCMxn	-	-	-	"Downwind distance from tower-top to nacelle CM"	meters
typedef	^	ED_InputFile	ReKi	NacCMyn	-	-	-	"Lateral distance from tower-top to nacelle CM"	meters
typedef	^	ED_InputFile	ReKi	NacCMzn	-	-	-	"Vertical distance from tower-top to nacelle CM"	meters
typedef	^	ED_InputFile	ReKi	NcIMUxn	-	-	-	"Downwind distance from the tower-top to the nacelle IMU"	meters
typedef	^	ED_InputFile	ReKi	NcIMUyn	-	-	-	"Lateral distance from the tower-top to the nacelle IMU"	meters
typedef	^	ED_InputFile	ReKi	NcIMUzn	-	-	-	"Vertical distance from the tower-top to the nacelle IMU"	meters
typedef	^	ED_InputFile	ReKi	Twr2Shft	-	-	-	"Vertical distance from the tower-top to the rotor shaft"	meters
typedef	^	ED_InputFile	ReKi	TowerHt	    -	-	-	"Height of tower relative to ground level [onshore], MSL [offshore wind or floating MHK], or seabed [fixed MHK]"	meters
typedef	^	ED_InputFile	ReKi	TowerBsHt	-	-	-	"Height of tower base relative to ground level [onshore], MSL [offshore wind or floating MHK], or seabed [fixed MHK]"	meters
typedef	^	ED_InputFile	ReKi	PtfmCMxt	-	-	-	"Downwind distance from the ground level [onshore], MSL [offshore wind or floating MHK], or seabed [fixed MHK] to the platform CM"	meters
typedef	^	ED_InputFile	ReKi	PtfmCMyt	-	-	-	"Lateral distance from the ground level [onshore], MSL [offshore wind or floating MHK], or seabed [fixed MHK] to the platform CM"	meters
typedef	^	ED_InputFile	ReKi	PtfmCMzt	-	-	-	"Vertical distance from the ground level [onshore], MSL [offshore wind or floating MHK], or seabed [fixed MHK] to the platform CM"	meters
typedef	^	ED_InputFile	ReKi	PtfmRefzt	-	-	-	"Vertical distance from the ground level [onshore], MSL [offshore wind or floating MHK], or seabed [fixed MHK] to the platform reference point"	meters
typedef	^	ED_InputFile	ReKi	TipMass	{:}	-	-	"Tip-brake masses"	kg
typedef	^	ED_InputFile	ReKi	HubMass	-	-	-	"Hub mass"	kg
typedef	^	ED_InputFile	ReKi	HubIner	-	-	-	"Hub inertia about teeter axis (2-blader) or rotor axis (3-blader)"	"kg m^2"
typedef	^	ED_InputFile	ReKi	GenIner	-	-	-	"Generator inertia about HSS"	"kg m^2"
typedef	^	ED_InputFile	ReKi	NacMass	-	-	-	"Nacelle mass"	kg
typedef	^	ED_InputFile	ReKi	NacYIner	-	-	-	"Nacelle yaw inertia"	"kg m^2"
typedef	^	ED_InputFile	ReKi	YawBrMass	-	-	-	"Yaw bearing mass"	kg
typedef	^	ED_InputFile	ReKi	PtfmMass	-	-	-	"Platform mass"	kg
typedef	^	ED_InputFile	ReKi	PtfmRIner	-	-	-	"Platform inertia for roll tilt rotation about the platform CM"	"kg m^2"
typedef	^	ED_InputFile	ReKi	PtfmPIner	-	-	-	"Platform inertia for pitch tilt rotation about the platform CM"	"kg m^2"
typedef	^	ED_InputFile	ReKi	PtfmYIner	-	-	-	"Platform inertia for yaw rotation about the platform CM"	"kg m^2"
typedef	^	ED_InputFile	ReKi	BldNodes	-	-	-	"Number of blade nodes (per blade) used for analysis"	-
typedef	^	ED_InputFile	ED_BladeMeshInputData	InpBlMesh	{:}	-	-	"Input data for blade discretizations (could be on each blade)"	"see BladeMeshInputData"
typedef	^	ED_InputFile	BladeInputData	InpBl	{:}	-	-	"Input data for individual blades"	"see BladeInputData type"
typedef	^	ED_InputFile	IntKi	TeetMod	-	-	-	"Rotor-teeter spring/damper model switch"	-
typedef	^	ED_InputFile	ReKi	TeetDmpP	-	-	-	"Rotor-teeter damper position"	radians
typedef	^	ED_InputFile	ReKi	TeetDmp	-	-	-	"Rotor-teeter damping constant"	N-m/(rad/s)
typedef	^	ED_InputFile	ReKi	TeetCDmp	-	-	-	"Rotor-teeter rate-independent Coulomb-damping"	N-m
typedef	^	ED_InputFile	ReKi	TeetSStP	-	-	-	"Rotor-teeter soft-stop position"	radians
typedef	^	ED_InputFile	ReKi	TeetHStP	-	-	-	"Rotor-teeter hard-stop position"	radians
typedef	^	ED_InputFile	ReKi	TeetSSSp	-	-	-	"Rotor-teeter soft-stop linear-spring constant"	N-m/rad
typedef	^	ED_InputFile	ReKi	TeetHSSp	-	-	-	"Rotor-teeter hard-stop linear-spring constant"	N-m/rad
typedef	^	ED_InputFile	ReKi	GBoxEff	-	-	-	"Gearbox efficiency"	%
typedef	^	ED_InputFile	ReKi	GBRatio	-	-	-	"Gearbox ratio"	-
typedef	^	ED_InputFile	ReKi	DTTorSpr	-	-	-	"Drivetrain torsional spring"	N-m/rad
typedef	^	ED_InputFile	ReKi	DTTorDmp	-	-	-	"Drivetrain torsional damper"	N-m/(rad/s)
typedef	^	ED_InputFile	LOGICAL	Furling	-	-	-	"Use Additional Furling parameters?"	-
typedef	^	ED_InputFile	IntKi	TwrNodes	-	-	-	"Number of tower nodes used in the analysis"	-
typedef	^	ED_InputFile	LOGICAL	SumPrint	-	-	-	"Print summary data to <RootName>.sum"	-
typedef	^	ED_InputFile	IntKi	OutFile	-	-	-	"Switch to determine where output will be placed: (1: in module output file only; 2: in glue code output file only; 3: both)"	-
#typedef	^	ED_InputFile	IntKi	OutFileFmt	-	-	-	"Format for module tabular (time-marching) output: {1: text file [<RootName>.out], 2: binary file [<RootName>.outb], 3: both}"	-
typedef	^	ED_InputFile	LOGICAL	TabDelim	-	-	-	"Flag to cause tab-delimited text output (delimited by space otherwise)"	-
typedef	^	ED_InputFile	CHARACTER(20)	OutFmt	-	-	-	"Format used for module's text tabular output (except time); resulting field should be 10 characters"	-
typedef	^	ED_InputFile	DbKi	Tstart	-	-	-	"Time to start module's tabular output"	seconds
typedef	^	ED_InputFile	IntKi	DecFact	-	-	-	"Decimation factor for module's tabular output (1=output every step)"	-
typedef	^	ED_InputFile	IntKi	NTwGages	-	-	-	"Number of tower strain gages"	-
typedef	^	ED_InputFile	IntKi	TwrGagNd	9	-	-	"Nodes closest to the tower strain gages"	-
typedef	^	ED_InputFile	IntKi	NBlGages	-	-	-	"Number of blade strain gages"	-
typedef	^	ED_InputFile	IntKi	BldGagNd	9	-	-	"Nodes closest to the blade strain gages"	-
typedef	^	ED_InputFile	IntKi	NumOuts	-	-	-	"Number of parameters in the output list (number of outputs requested)"	-
typedef	^	ED_InputFile	CHARACTER(ChanLen)	OutList	{:}	-	-	"List of user-requested output channels"	-

# ..... Tower Input file data ...........................................................................................................
typedef	^	ED_InputFile	IntKi	NTwInpSt	-	-	-	"Number of tower input stations"	-
typedef	^	ED_InputFile	ReKi	TwrFADmp	2	-	-	"Tower fore-aft structural damping ratios"	%
typedef	^	ED_InputFile	ReKi	TwrSSDmp	2	-	-	"Tower side-to-side structural damping ratios"	%
typedef	^	ED_InputFile	ReKi	FAStTunr	2	-	-	"Tower fore-aft modal stiffness tuners"	-
typedef	^	ED_InputFile	ReKi	SSStTunr	2	-	-	"Tower side-to-side modal stiffness tuners"	-
typedef	^	ED_InputFile	ReKi	HtFract	{:}	-	-	"Fractional height of the flexible portion of tower for a given input station"	-
typedef	^	ED_InputFile	ReKi	TMassDen	{:}	-	-	"Tower mass density for a given input station"	kg/m
typedef	^	ED_InputFile	ReKi	TwFAStif	{:}	-	-	"Tower fore-aft stiffness for a given input station"	Nm^2
typedef	^	ED_InputFile	ReKi	TwSSStif	{:}	-	-	"Tower side-to-side stiffness for a given input station"	Nm^2
typedef	^	ED_InputFile	ReKi	TwFAM1Sh	{:}	-	-	"Tower fore-aft mode-1 shape coefficients"	-
typedef	^	ED_InputFile	ReKi	TwFAM2Sh	{:}	-	-	"Tower fore-aft mode-2 shape coefficients"	-
typedef	^	ED_InputFile	ReKi	TwSSM1Sh	{:}	-	-	"Tower side-to-side mode-1 shape coefficients"	-
typedef	^	ED_InputFile	ReKi	TwSSM2Sh	{:}	-	-	"Tower side-to-side mode-2 shape coefficients"	-
# ..... Furling Input file data ...........................................................................................................
typedef	^	ED_InputFile	LOGICAL	RFrlDOF	-	-	-	"Rotor-furl DOF"	-
typedef	^	ED_InputFile	LOGICAL	TFrlDOF	-	-	-	"Tail-furl DOF"	-
typedef	^	ED_InputFile	ReKi	RotFurl	-	-	-	"Initial or fixed rotor-furl angle"	radians
typedef	^	ED_InputFile	ReKi	TailFurl	-	-	-	"Initial or fixed tail-furl angle"	radians
typedef	^	ED_InputFile	ReKi	Yaw2Shft	-	-	-	"Lateral distance from the yaw axis to the rotor shaft"	meters
typedef	^	ED_InputFile	ReKi	ShftSkew	-	-	-	"Rotor shaft skew angle"	radians
typedef	^	ED_InputFile	ReKi	RFrlCM_n	3	-	-	"Vector from tower-top to rotor-furl CM"	meters
typedef	^	ED_InputFile	ReKi	BoomCM_n	3	-	-	"Vector from tower-top to tail boom CM"	meters
typedef	^	ED_InputFile	ReKi	TFinCM_n	3	-	-	"Vector from tower-top to tail fin CM"	meters
typedef	^	ED_InputFile	ReKi	RFrlPnt_n	3	-	-	"Vector from tower-top to arbitrary point on rotor-furl axis"	meters
typedef	^	ED_InputFile	ReKi	RFrlSkew	-	-	-	"Rotor-furl axis skew angle"	radians
typedef	^	ED_InputFile	ReKi	RFrlTilt	-	-	-	"Rotor-furl axis tilt angle"	radians
typedef	^	ED_InputFile	ReKi	TFrlPnt_n	3	-	-	"Vector from tower-top to arbitrary point on tail-furl axis"	meters
typedef	^	ED_InputFile	ReKi	TFrlSkew	-	-	-	"Rotor-furl axis skew angle"	radians
typedef	^	ED_InputFile	ReKi	TFrlTilt	-	-	-	"Rotor-furl axis tilt angle"	radians
typedef	^	ED_InputFile	ReKi	RFrlMass	-	-	-	"Rotor-furl mass"	kg
typedef	^	ED_InputFile	ReKi	BoomMass	-	-	-	"Tail boom mass"	kg
typedef	^	ED_InputFile	ReKi	TFinMass	-	-	-	"Tail fin mass"	kg
typedef	^	ED_InputFile	ReKi	RFrlIner	-	-	-	"Rotor-furl inertia about rotor-furl axis"	"kg m^2"
typedef	^	ED_InputFile	ReKi	TFrlIner	-	-	-	"Tail boom inertia about tail-furl axis"	"kg m^2"
typedef	^	ED_InputFile	IntKi	RFrlMod	-	-	-	"Rotor-furl spring/damper model switch"	-
typedef	^	ED_InputFile	ReKi	RFrlSpr	-	-	-	"Rotor-furl spring constant"	N-m/rad
typedef	^	ED_InputFile	ReKi	RFrlDmp	-	-	-	"Rotor-furl damping constant"	N-m/(rad/s)
typedef	^	ED_InputFile	ReKi	RFrlUSSP	-	-	-	"Rotor-furl up-stop spring position"	radians
typedef	^	ED_InputFile	ReKi	RFrlDSSP	-	-	-	"Rotor-furl down-stop spring position"	radians
typedef	^	ED_InputFile	ReKi	RFrlUSSpr	-	-	-	"Rotor-furl up-stop spring constant"	N-m/rad
typedef	^	ED_InputFile	ReKi	RFrlDSSpr	-	-	-	"Rotor-furl down-stop spring constant"	N-m/rad
typedef	^	ED_InputFile	ReKi	RFrlUSDP	-	-	-	"Rotor-furl up-stop damper position"	radians
typedef	^	ED_InputFile	ReKi	RFrlDSDP	-	-	-	"Rotor-furl down-stop damper position"	radians
typedef	^	ED_InputFile	ReKi	RFrlUSDmp	-	-	-	"Rotor-furl up-stop damping constant"	N-m/(rad/s)
typedef	^	ED_InputFile	ReKi	RFrlDSDmp	-	-	-	"Rotor-furl down-stop damping constant"	N-m/(rad/s)
typedef	^	ED_InputFile	IntKi	TFrlMod	-	-	-	"Tail-furl spring/damper model switch"	-
typedef	^	ED_InputFile	ReKi	TFrlSpr	-	-	-	"Tail-furl spring constant"	N-m/rad
typedef	^	ED_InputFile	ReKi	TFrlDmp	-	-	-	"Tail-furl damping constant"	N-m/(rad/s)
typedef	^	ED_InputFile	ReKi	TFrlUSSP	-	-	-	"Tail-furl up-stop spring position"	radians
typedef	^	ED_InputFile	ReKi	TFrlDSSP	-	-	-	"Tail-furl down-stop spring position"	radians
typedef	^	ED_InputFile	ReKi	TFrlUSSpr	-	-	-	"Tail-furl up-stop spring constant"	N-m/rad
typedef	^	ED_InputFile	ReKi	TFrlDSSpr	-	-	-	"Tail-furl down-stop spring constant"	N-m/rad
typedef	^	ED_InputFile	ReKi	TFrlUSDP	-	-	-	"Tail-furl up-stop damper position"	radians
typedef	^	ED_InputFile	ReKi	TFrlDSDP	-	-	-	"Tail-furl down-stop damper position"	radians
typedef	^	ED_InputFile	ReKi	TFrlUSDmp	-	-	-	"Tail-furl up-stop damping constant"	N-m/(rad/s)
typedef	^	ED_InputFile	ReKi	TFrlDSDmp	-	-	-	"Tail-furl down-stop damping constant"	N-m/(rad/s)
typedef	^	ED_InputFile	IntKi	method	-	-	-	"Identifier for integration method (1 [RK4], 2 [AB4], or 3 [ABM4])"	-

# ..... ED_AllBldNdOuts compile option ............................................................................................
typedef  ^  ED_InputFile   IntKi BldNd_NumOuts   -       -       -       "Number of requested output channels per blade node (ED_AllBldNdOuts)"  -
typedef  ^  ED_InputFile   CHARACTER(ChanLen)      BldNd_OutList   {:}     -       -       "List of user-requested output channels (ED_AllBldNdOuts)"      -
#typedef  ^  ED_InputFile   IntKi BldNd_BlOutNd {:} - - "The blade nodes to actually output (ED_AllBldNdOuts)" -
typedef  ^  ED_InputFile   CHARACTER(1024) BldNd_BlOutNd_Str - - - "String to parse for the blade nodes to actually output (ED_AllBldNdOuts)" -
typedef  ^  ED_InputFile   IntKi BldNd_BladesOut - - - "The blades to output (ED_AllBldNdOuts)" -

# ..... Internal data types .......................................................................................................

# ..... Internal data types: Coordinate Systems ...................................................................................
#  This type defines coordinate sytems used internally by FAST.  The 3 components of each vector correspond to the z1, z2, and z3 components of the individual vectors.
#  NOTE: the orientations of most of these coordinate systems will change every time step.
typedef	^	ED_CoordSys	R8Ki	a1	3	-	-	"Vector / direction a1 (=  xt from the IEC coord. system)"	-
typedef	^	ED_CoordSys	R8Ki	a2	3	-	-	"Vector / direction a2 (=  zt from the IEC coord. system)"	-
typedef	^	ED_CoordSys	R8Ki	a3	3	-	-	"Vector / direction a3 (= -yt from the IEC coord. system)"	-
typedef	^	ED_CoordSys	R8Ki	b1	3	-	-	"Vector / direction b1 (=  xp from the IEC coord. system)"	-
typedef	^	ED_CoordSys	R8Ki	b2	3	-	-	"Vector / direction b2 (=  zp from the IEC coord. system)"	-
typedef	^	ED_CoordSys	R8Ki	b3	3	-	-	"Vector / direction b3 (= -yp from the IEC coord. system)"	-
typedef	^	ED_CoordSys	R8Ki	c1	3	-	-	"Vector / direction c1 (=  xs from the IEC coord. system)"	-
typedef	^	ED_CoordSys	R8Ki	c2	3	-	-	"Vector / direction c2 (=  zs from the IEC coord. system)"	-
typedef	^	ED_CoordSys	R8Ki	c3	3	-	-	"Vector / direction c3 (= -ys from the IEC coord. system)"	-
typedef	^	ED_CoordSys	R8Ki	d1	3	-	-	"Vector / direction d1 (=  xn from the IEC coord. system)"	-
typedef	^	ED_CoordSys	R8Ki	d2	3	-	-	"Vector / direction d2 (=  zn from the IEC coord. system)"	-
typedef	^	ED_CoordSys	R8Ki	d3	3	-	-	"Vector / direction d3 (= -yn from the IEC coord. system)"	-
typedef	^	ED_CoordSys	R8Ki	e1	3	-	-	"Vector / direction e1 (=  xa from the IEC coord. system)"	-
typedef	^	ED_CoordSys	R8Ki	e2	3	-	-	"Vector / direction e2 (=  ya from the IEC coord. system)"	-
typedef	^	ED_CoordSys	R8Ki	e3	3	-	-	"Vector / direction e3 (=  za from the IEC coord. system)"	-
typedef	^	ED_CoordSys	R8Ki	f1	3	-	-	"Vector / direction f1"	-
typedef	^	ED_CoordSys	R8Ki	f2	3	-	-	"Vector / direction f2"	-
typedef	^	ED_CoordSys	R8Ki	f3	3	-	-	"Vector / direction f3"	-
typedef	^	ED_CoordSys	R8Ki	g1	3	-	-	"Vector / direction g1 (=  xh from the IEC coord. system)"	-
typedef	^	ED_CoordSys	R8Ki	g2	3	-	-	"Vector / direction g2 (=  yh from the IEC coord. system)"	-
typedef	^	ED_CoordSys	R8Ki	g3	3	-	-	"Vector / direction g3 (=  zh from the IEC coord. system)"	-
typedef	^	ED_CoordSys	R8Ki	i1	{:}{:}	-	-	"i1(K,:) = vector / direction i1 for blade K (=  xcK from the IEC coord. system)"	-
typedef	^	ED_CoordSys	R8Ki	i2	{:}{:}	-	-	"i2(K,:) = vector / direction i2 for blade K (=  ycK from the IEC coord. system)"	-
typedef	^	ED_CoordSys	R8Ki	i3	{:}{:}	-	-	"i3(K,:) = vector / direction i3 for blade K (=  zcK from the IEC coord. system)"	-
typedef	^	ED_CoordSys	R8Ki	j1	{:}{:}	-	-	"j1(K,:) = vector / direction j1 for blade K (=  xbK from the IEC coord. system)"	-
typedef	^	ED_CoordSys	R8Ki	j2	{:}{:}	-	-	"j2(K,:) = vector / direction j2 for blade K (=  ybK from the IEC coord. system)"	-
typedef	^	ED_CoordSys	R8Ki	j3	{:}{:}	-	-	"j3(K,:) = vector / direction j3 for blade K (=  zbK from the IEC coord. system)"	-
typedef	^	ED_CoordSys	R8Ki	m1	{:}{:}{:}	-	-	"m1(K,J,:) = vector / direction m1 for node J of blade K (used to calc. and return aerodynamic loads from AeroDyn)"	-
typedef	^	ED_CoordSys	R8Ki	m2	{:}{:}{:}	-	-	"m2(K,J,:) = vector / direction m2 for node J of blade K (used to calc. and return aerodynamic loads from AeroDyn)"	-
typedef	^	ED_CoordSys	R8Ki	m3	{:}{:}{:}	-	-	"m3(K,J,:) = vector / direction m3 for node J of blade K (used to calc. and return aerodynamic loads from AeroDyn)"	-
typedef	^	ED_CoordSys	R8Ki	n1	{:}{:}{:}	-	-	"n1(K,J,:) = vector / direction n1 for node J of blade K (= LxbK from the IEC coord. system)"	-
typedef	^	ED_CoordSys	R8Ki	n2	{:}{:}{:}	-	-	"n2(K,J,:) = vector / direction n2 for node J of blade K (= LybK from the IEC coord. system)"	-
typedef	^	ED_CoordSys	R8Ki	n3	{:}{:}{:}	-	-	"n3(K,J,:) = vector / direction n3 for node J of blade K (= LzbK from the IEC coord. system)"	-
typedef	^	ED_CoordSys	R8Ki	rf1	3	-	-	"Vector / direction rf1 (rotor-furl coordinate system = d1 when rotor-furl angle = 0)"	-
typedef	^	ED_CoordSys	R8Ki	rf2	3	-	-	"Vector / direction rf2 (rotor-furl coordinate system = d2 when rotor-furl angle = 0)"	-
typedef	^	ED_CoordSys	R8Ki	rf3	3	-	-	"Vector / direction rf3 (rotor-furl coordinate system = d3 when rotor-furl angle = 0)"	-
typedef	^	ED_CoordSys	R8Ki	rfa	3	-	-	"Vector / direction of the rotor-furl axis"	-
typedef	^	ED_CoordSys	R8Ki	t1	{:}{:}	-	-	"Vector / direction t1 for tower node J (=  Lxt from the IEC coord. system)"	-
typedef	^	ED_CoordSys	R8Ki	t2	{:}{:}	-	-	"Vector / direction t2 for tower node J (=  Lzt from the IEC coord. system)"	-
typedef	^	ED_CoordSys	R8Ki	t3	{:}{:}	-	-	"Vector / direction t3 for tower node J (= -Lyt from the IEC coord. system)"	-
typedef	^	ED_CoordSys	R8Ki	te1	{:}{:}{:}	-	-	"te1(K,J,:) = vector / direction te1 for node J of blade K (used to calc. noise)"	-
typedef	^	ED_CoordSys	R8Ki	te2	{:}{:}{:}	-	-	"te2(K,J,:) = vector / direction te2 for node J of blade K (used to calc. noise)"	-
typedef	^	ED_CoordSys	R8Ki	te3	{:}{:}{:}	-	-	"te3(K,J,:) = vector / direction te3 for node J of blade K (used to calc. noise)"	-
typedef	^	ED_CoordSys	R8Ki	tf1	3	-	-	"Vector / direction tf1 (tail-furl coordinate system = d1 when rotor-furl angle = 0)"	-
typedef	^	ED_CoordSys	R8Ki	tf2	3	-	-	"Vector / direction tf2 (tail-furl coordinate system = d2 when rotor-furl angle = 0)"	-
typedef	^	ED_CoordSys	R8Ki	tf3	3	-	-	"Vector / direction tf3 (tail-furl coordinate system = d3 when rotor-furl angle = 0)"	-
typedef	^	ED_CoordSys	R8Ki	tfa	3	-	-	"Vector / direction of the tail-furl axis"	-
typedef	^	ED_CoordSys	R8Ki	z1	3	-	-	"Vector / direction z1 (=  xi from the IEC coord. system)"	-
typedef	^	ED_CoordSys	R8Ki	z2	3	-	-	"Vector / direction z2 (=  zi from the IEC coord. system)"	-
typedef	^	ED_CoordSys	R8Ki	z3	3	-	-	"Vector / direction z3 (= -yi from the IEC coord. system)"	-

# ..... Internal data types: Enabled DOFs ........................................................................................
#  This type defines variables associated with the module's degrees of freedom (DOFs)
#  NOTE: The number of active DOFs may change with time.
typedef	^	ED_ActiveDOFs	IntKi	NActvDOF	-	-	-	"The number of active (enabled) DOFs in the model"	-
typedef	^	ED_ActiveDOFs	IntKi	NPCE	-	-	-	"Number of DOFs that contribute to the QD2T-related linear accelerations of the hub center of mass (point C) in the inertia frame, based on which DOFs are presently enabled"