###################################################################################################################################
# Registry for AeroDyn 15 in the FAST Modularization Framework
# This Registry file is used to create AeroDyn_Types which contains data used in the AeroDyn module.
# It also contains copy, destroy, pack, and unpack routines associated with each defined data types.
# See the NWTC Programmer's Handbook for further information on the format/contents of this file.
#
# Entries are of the form
# <keyword>	<ModuleName/ModName>	<TypeName>	<FieldType>	<FieldName>	<Dims>	<IO>	<DNAME>	<DESCRIP>	<UNITS>
#
# Use ^ as a shortcut for the value in the same column from the previous line.
###################################################################################################################################
# ...... Include files (definitions from NWTC Library) ............................................................................
include	Registry_NWTC_Library.txt
usefrom	AirfoilInfo_Registry.txt
usefrom	BEMT_Registry.txt
usefrom  FVW_Registry.txt
usefrom	UnsteadyAero_Registry.txt
usefrom AeroAcoustics_Registry.txt

param    AeroDyn/AD     -  IntKi    ModelUnknown            - -1  -  "" -
param    ^              -  IntKi    WakeMod_none            -  0  -  "Wake model - none"                                      -
param    ^              -  IntKi    WakeMod_BEMT            -  1  -  "Wake model - BEMT (blade elememnt momentum theory)"     -
param    ^              -  IntKi    WakeMod_DBEMT           -  2  -  "Wake model - DBEMT (dynamic elememnt momentum theory)"  -
param    ^              -  IntKi    WakeMod_FVW             -  3  -  "Wake model - FVW (free vortex wake, OLAF)"              -

param    ^              -  IntKi    AFAeroMod_steady        -  1  -  "steady model"                               -
param    ^              -  IntKi    AFAeroMod_BL_unsteady   -  2  -  "Beddoes-Leishman unsteady model"            -

param    ^              -  IntKi    TwrPotent_none          -  0  -  "no tower potential flow"                    -
param    ^              -  IntKi    TwrPotent_baseline      -  1  -  "baseline tower potential flow"              -
param    ^              -  IntKi    TwrPotent_Bak           -  2  -  "tower potential flow with Bak correction"   -

param    ^              -  IntKi    TwrShadow_none          -  0  -  "no tower shadow"                            -
param    ^              -  IntKi    TwrShadow_Powles        -  1  -  "Powles tower shadow model"                  -
param    ^              -  IntKi    TwrShadow_Eames         -  2  -  "Eames tower shadow model"                   -

param    ^              -  IntKi    TFinAero_none           -  0  -  "no tail fin aero"                                   -
param    ^              -  IntKi    TFinAero_polar          -  1  -  "polar-based tail fin aerodynamics"                  -
param    ^              -  IntKi    TFinAero_USB            -  2  -  "unsteady slender body tail fin aerodynamics model"  -

param    ^              -  IntKi    TFinIndMod_none         -  0  -  "no induction"                                   -
param    ^              -  IntKi    TFinIndMod_rotavg       -  1  -  "rotor averaged induction"                       -
# AeroProjMod (APM)
param    ^              -  IntKi    APM_BEM_NoSweepPitchTwist - 1 -  "Original AeroDyn model where momentum balance is done in the WithoutSweepPitchTwist system"  -
param    ^              -  IntKi    APM_BEM_Polar             - 2 -  "Use staggered polar grid for momentum balance in each annulus"                               -
param    ^              -  IntKi    APM_LiftingLine           - 3 -  "Use the blade lifting line (i.e. the structural) orientation (currently for OLAF with VAWT)" -
# if more than AD_MaxBl_Out blades are used in the simulation, not all channels will have output information for the "extra" blades.
# Also, the AD input file will require more lines for the additional blades.
param    ^              -  IntKi    AD_MaxBl_Out            -  3  -  "Maximum number of blades for information output (or linearization)" -

# Tail Fin parameters 
typedef  ^  TFinParameterType   IntKi   TFinMod    -    -   0 "Tail fin aerodynamics model {0=none, 1=polar-based, 2=USB-based}" (switch)
typedef  ^  TFinParameterType   ReKi    TFinChord  -    -   - "Tail fin chord [used only when TFinMod=1]" m
typedef  ^  TFinParameterType   ReKi    TFinArea   -    -   - "Tail fin planform area [used only when TFinMod=1]" m^2
typedef  ^  TFinParameterType   IntKi   TFinIndMod -    -   - "Model for induced velocity calculation {0=none, 1=rotor-average}" (switch)
typedef  ^  TFinParameterType   IntKi   TFinAFID   -    -   - "Index of Tail fin airfoil number [1 to NumAFfiles]" -

# Tail Fin input file 
typedef  ^  TFinInputFileType   IntKi   TFinMod    -    -   0 "Tail fin aerodynamics model {0=none, 1=polar-based, 2=USB-based}" (switch)
typedef  ^  TFinInputFileType   ReKi    TFinChord  -    -   - "Tail fin chord [used only when TFinMod=1]" m
typedef  ^  TFinInputFileType   ReKi    TFinArea   -    -   - "Tail fin planform area [used only when TFinMod=1]" m^2
typedef  ^  TFinInputFileType   ReKi    TFinRefP_n 3    -   - "Undeflected position of the tail fin reference point wrt the tower top" m 
typedef  ^  TFinInputFileType   ReKi    TFinAngles 3    -   - "Tail fin chordline skew, tilt, and bank angles about the reference point" (deg)
typedef  ^  TFinInputFileType   IntKi   TFinIndMod -    -   - "Model for induced velocity calculation {0=none, 1=rotor-average}" (switch)
typedef  ^  TFinInputFileType   IntKi   TFinAFID   -    -   - "Index of Tail fin airfoil number [1 to NumAFfiles]" -



typedef    ^    AD_VTK_BLSurfaceType     SiKi                    AirfoilCoords    {:}{:}{:} -    -    "x,y coordinates for airfoil around each blade node on a blade (relative to reference)"    -

typedef    ^    AD_VTK_RotSurfaceType    AD_VTK_BLSurfaceType    BladeShape          {:}    -    -    "AirfoilCoords for each blade"    -
typedef    ^          ^                  SiKi                    TowerRad            {:}    -    -    "radius of each ED tower node"    m

 

# ..... Initialization data .......................................................................................................
# Define inputs that the initialization routine may need here:
typedef	AeroDyn/AD	RotInitInputType	IntKi	NumBlades	-	-	-	"Number of blades on the turbine" -
typedef	^	RotInitInputType	ReKi	HubPosition	{3}	-	-	"X-Y-Z reference position of hub"	m
typedef	^	RotInitInputType	R8Ki	HubOrientation	{3}{3}	-	-	"DCM reference orientation of hub"	-
typedef	^	RotInitInputType	ReKi	BladeRootPosition	{:}{:}	-	-	"X-Y-Z reference position of each blade root (3 x NumBlades)"	m
typedef	^	RotInitInputType	R8Ki	BladeRootOrientation	{:}{:}{:}	-	-	"DCM reference orientation of blade roots (3x3 x NumBlades)"	-
typedef	^	RotInitInputType	R8Ki	NacellePosition	{3}	-	-	"X-Y-Z reference position of nacelle"	m
typedef	^	RotInitInputType	R8Ki	NacelleOrientation	{3}{3}	-	-	"DCM reference orientation of nacelle"	-
typedef	^	RotInitInputType	IntKi	AeroProjMod   	-	1	-	"Flag to switch between different projection models"	-
typedef	^	RotInitInputType	IntKi	AeroBEM_Mod   	-      -1	-	"Flag to switch between different BEM Model"	-

typedef	^	InitInputType	RotInitInputType rotors	{:}	-	-	"Init Input Types for rotors"	-
typedef	^	InitInputType	CHARACTER(1024)	InputFile	-	-	-	"Name of the input file"	-
typedef	^	InitInputType	CHARACTER(1024)	RootName	-	-	-	"RootName for writing output files"	-
typedef	^	InitInputType	LOGICAL	UsePrimaryInputFile	-	.TRUE.	-	"Read input file instead of passed data"	-
typedef	^	InitInputType	FileInfoType	PassedPrimaryInputData	-	-	-	"Primary input file as FileInfoType (set by driver/glue code)"	-
typedef	^	InitInputType	Logical	Linearize	-	.FALSE.	-	"Flag that tells this module if the glue code wants to linearize."	-
typedef	^	InitInputType	ReKi	Gravity	-	-	-	"Gravity force" Nm/s^2
typedef ^   InitInputType   IntKi   MHK     -   -   -   "MHK turbine type switch"   -
typedef ^   InitInputType   ReKi    defFldDens  -   -   -   "Default fluid density from the driver; may be overwritten" kg/m^3
typedef ^   InitInputType   ReKi    defKinVisc  -   -   -   "Default kinematic viscosity from the driver; may be overwritten" m^2/s
typedef ^   InitInputType   ReKi    defSpdSound -   -   -   "Default speed of sound from the driver; may be overwritten" m/s
typedef ^   InitInputType   ReKi    defPatm     -   -   -   "Default atmospheric pressure from the driver; may be overwritten" Pa
typedef ^   InitInputType   ReKi    defPvap     -   -   -   "Default vapor pressure from the driver; may be overwritten" Pa
typedef ^   InitInputType   ReKi    WtrDpth -  -   -    "Water depth" m
typedef ^   InitInputType   ReKi    MSL2SWL -  -   -    "Offset between still-water level and mean sea level" m

# This is data defined in the Input File for this module (or could otherwise be passed in)
# ..... Blade Input file data .....................................................................................................
typedef	^	AD_BladePropsType	IntKi	NumBlNds	-	-	-	"Number of blade nodes used in the analysis"	-
typedef	^	AD_BladePropsType	ReKi	BlSpn	{:}	-	-	"Span at blade node"	m
typedef	^	AD_BladePropsType	ReKi	BlCrvAC	{:}	-	-	"Curve at blade node"	m
typedef	^	AD_BladePropsType	ReKi	BlSwpAC	{:}	-	-	"Sweep at blade node"	m
typedef	^	AD_BladePropsType	ReKi	BlCrvAng	{:}	-	-	"Curve angle at blade node"	radians
typedef	^	AD_BladePropsType	ReKi	BlTwist	{:}	-	-	"Twist at blade node"	radians
typedef	^	AD_BladePropsType	ReKi	BlChord	{:}	-	-	"Chord at blade node"	m
typedef	^	AD_BladePropsType	IntKi	BlAFID	{:}	-	-	"ID of Airfoil at blade node"	-
typedef ^   AD_BladePropsType   ReKi    BlCb    {:} -   -   "Coefficient of buoyancy at blade node"   -
typedef ^   AD_BladePropsType   ReKi    BlCenBn {:} -   -   "Center of buoyancy normal offset at blade node"   m
typedef ^   AD_BladePropsType   ReKi    BlCenBt {:} -   -   "Center of buoyancy tangential offset at blade node"   m

# Define outputs from the initialization routine here:
typedef	^	AD_BladeShape	SiKi	AirfoilCoords	{:}{:}{:}	-	-	"x-y coordinates for airfoils, relative to node"	m

# Define outputs from the initialization routine here:
typedef	^	RotInitOutputType	ReKi	AirDens	-	-	-	"Air density"	kg/m^3
typedef	^	RotInitOutputType	CHARACTER(ChanLen)	WriteOutputHdr	{:}	-	-	"Names of the output-to-file channels"	-
typedef	^	RotInitOutputType	CHARACTER(ChanLen)	WriteOutputUnt	{:}	-	-	"Units of the output-to-file channels"	-
typedef	^	RotInitOutputType	AD_BladeShape	BladeShape	{:}	-	-	"airfoil coordinates for each blade"	m
typedef	^	RotInitOutputType	CHARACTER(LinChanLen)	LinNames_y	{:}	-	-	"Names of the outputs used in linearization"	-
typedef	^	RotInitOutputType	CHARACTER(LinChanLen)	LinNames_x	{:}	-	-	"Names of the continuous states used in linearization"	-
typedef	^	RotInitOutputType	CHARACTER(LinChanLen)	LinNames_u	{:}	-	-	"Names of the inputs used in linearization"	-
typedef	^	RotInitOutputType	LOGICAL	RotFrame_y	{:}	-	-	"Flag that tells FAST/MBC3 if the outputs used in linearization are in the rotating frame"	-
typedef	^	RotInitOutputType	LOGICAL	RotFrame_x	{:}	-	-	"Flag that tells FAST/MBC3 if the continuous states used in linearization are in the rotating frame (not used for glue)"	-
typedef	^	RotInitOutputType	LOGICAL	RotFrame_u	{:}	-	-	"Flag that tells FAST/MBC3 if the inputs used in linearization are in the rotating frame"	-
typedef	^	RotInitOutputType	LOGICAL	IsLoad_u	{:}	-	-	"Flag that tells FAST if the inputs used in linearization are loads (for preconditioning matrix)"	-
typedef	^	RotInitOutputType	AD_BladePropsType	BladeProps	{:}	-	-	"blade property information from blade input files"	-
typedef	^	RotInitOutputType	IntKi	DerivOrder_x {:}	-	-	"Integer that tells FAST/MBC3 the maximum derivative order of continuous states used in linearization"	-
typedef	^	RotInitOutputType	ReKi	TwrElev	{:}	-	-	"Elevation at tower node"	m
typedef	^	RotInitOutputType	ReKi	TwrDiam	{:}	-	-	"Diameter of tower at node"	m

typedef	^	InitOutputType	RotInitOutputType	 rotors	{:}	-	-	"Rotor init output type"	-
typedef	^	InitOutputType	ProgDesc	Ver	-	-	-	"This module's name, version, and date"	-
# ..... Input file data ...........................................................................................................

# ..... Primary Input file data ...................................................................................................
#typedef  ^  RotInputFile   IntKi BldNd_BladesOut - - - "The blades to output (AD_AllBldNdOuts)" -
typedef	^	RotInputFile	AD_BladePropsType	BladeProps	{:}	-	-	"blade property information from blade input files"	-
typedef	^	RotInputFile	IntKi	NumTwrNds	-	-	-	"Number of tower nodes used in the analysis"	-
typedef	^	RotInputFile	ReKi	TwrElev	{:}	-	-	"Elevation at tower node"	m
typedef	^	RotInputFile	ReKi	TwrDiam	{:}	-	-	"Diameter of tower at node"	m
typedef	^	RotInputFile	ReKi	TwrCd	{:}	-	-	"Coefficient of drag at tower node"	-
typedef	^	RotInputFile	ReKi	TwrTI	{:}	-	-	"Turbulence intensity for tower shadow at tower node"	-
typedef	^	RotInputFile	ReKi	TwrCb	{:}	-	-	"Coefficient of buoyancy at tower node"	-
# Hub
typedef	^	RotInputFile	ReKi	VolHub	    -	-	-	"Hub volume" m^3
typedef	^	RotInputFile	ReKi	HubCenBx    -	-	-	"Hub center of buoyancy x direction offset" m
# Nacelle
typedef	^	RotInputFile	ReKi	VolNac	    -	-	-	"Nacelle volume" m^3
typedef	^	RotInputFile	ReKi	NacCenB     3	-	-	"Position of nacelle center of buoyancy from yaw bearing in nacelle coordinates" m
# TailFin
typedef  ^  RotInputFile   LOGICAL          TFinAero  - .FALSE. -   "Calculate tail fin aerodynamics model (flag)" flag
typedef  ^  RotInputFile   CHARACTER(1024)  TFinFile  -    -    -   "Input file for tail fin aerodynamics [used only when TFinAero=True]" -
typedef  ^  RotInputFile   TFinInputFileType TFin     -    -    -   "Input file data for tail fin" -

typedef	^	AD_InputFile	Logical	Echo	-	-	-	"Echo input file to echo file"	-
typedef	^	AD_InputFile	DbKi	DTAero	-	-	-	"Time interval for aerodynamic calculations {or "default"}"	s
typedef	^	AD_InputFile	IntKi	WakeMod	-	-	-	"Type of wake/induction model {0=none, 1=BEMT, 2=DBEMT, 3=FVW}"	-
typedef	^	AD_InputFile	IntKi	AFAeroMod	-	-	-	"Type of blade airfoil aerodynamics model {1=steady model, 2=Beddoes-Leishman unsteady model}"	-
typedef	^	AD_InputFile	IntKi	TwrPotent	-	-	-	"Type of tower influence on wind based on potential flow around the tower {0=none, 1=baseline potential flow, 2=potential flow with Bak correction}"	-
typedef	^	AD_InputFile	IntKi	TwrShadow	-	-	-	"Type of tower influence on wind based on downstream tower shadow {0=none, 1=Powles model, 2=Eames model}"	-
typedef	^	AD_InputFile	LOGICAL	TwrAero	-	-	-	"Calculate tower aerodynamic loads?"	flag
typedef	^	AD_InputFile	Logical	FrozenWake	-	-	-	"Flag that tells this module it should assume a frozen wake during linearization."	-
typedef	^	AD_InputFile	Logical	CavitCheck	-	-	-	"Flag that tells us if we want to check for cavitation" -
typedef ^   AD_InputFile    Logical Buoyancy    -   -   -   "Include buoyancy effects?" flag
typedef	^	AD_InputFile	Logical	CompAA   -  -  -  "Compute AeroAcoustic noise" flag
typedef	^	AD_InputFile	CHARACTER(1024)	AA_InputFile	-	-	-	"AeroAcoustics input file name"	"quoted strings"
typedef	^	AD_InputFile	CHARACTER(1024)	ADBlFile {:}	-	-	"AD blade file (NumBl filenames)"	"quoted strings"
typedef	^	AD_InputFile	ReKi	AirDens	-	-	-	"Air density"	kg/m^3
typedef	^	AD_InputFile	ReKi	KinVisc	-	-	-	"Kinematic air viscosity"	m^2/s
typedef	^	AD_InputFile	ReKi	Patm 	-	-	-	"Atmospheric pressure" Pa
typedef	^	AD_InputFile	ReKi	Pvap 	-	-	-	"Vapour pressure" Pa
typedef	^	AD_InputFile	ReKi	SpdSound	-	-	-	"Speed of sound"	m/s
typedef	^	AD_InputFile	IntKi	SkewMod	-	-	-	"Type of skewed-wake correction model {0=orthogonal, 1=uncoupled, 2=Pitt/Peters, 3=coupled} [unused when WakeMod=0]"	-
typedef	^	AD_InputFile	ReKi	SkewModFactor	-	-	-	"Constant used in Pitt/Peters skewed wake model (default is 15*pi/32)" -
typedef	^	AD_InputFile	LOGICAL	TipLoss	-	-	-	"Use the Prandtl tip-loss model? [unused when WakeMod=0]"	flag
typedef	^	AD_InputFile	LOGICAL	HubLoss	-	-	-	"Use the Prandtl hub-loss model? [unused when WakeMod=0]"	flag
typedef	^	AD_InputFile	LOGICAL	TanInd	-	-	-	"Include tangential induction in BEMT calculations? [unused when WakeMod=0]"	flag
typedef	^	AD_InputFile	LOGICAL	AIDrag	-	-	-	"Include the drag term in the axial-induction calculation? [unused when WakeMod=0]"	flag
typedef	^	AD_InputFile	LOGICAL	TIDrag	-	-	-	"Include the drag term in the tangential-induction calculation? [unused when WakeMod=0 or TanInd=FALSE]"	flag
typedef	^	AD_InputFile	ReKi	IndToler	-	-	-	"Convergence tolerance for BEM induction factors [unused when WakeMod=0]"	-
typedef	^	AD_InputFile	ReKi	MaxIter	-	-	-	"Maximum number of iteration steps [unused when WakeMod=0]"	-
typedef	^	AD_InputFile	IntKi	UAMod	-	-	-	"Unsteady Aero Model Switch (switch) {1=Baseline model (Original), 2=Gonzalez's variant (changes in Cn,Cc,Cm), 3=Minnema/Pierce variant (changes in Cc and Cm)} [used only when AFAeroMod=2]"	-
typedef	^	AD_InputFile	LOGICAL	FLookup	-	-	-	"Flag to indicate whether a lookup for f' will be calculated (TRUE) or whether best-fit exponential equations will be used (FALSE); if FALSE S1-S4 must be provided in airfoil input files [used only when AFAeroMod=2]"	flag
typedef	^	AD_InputFile	ReKi	InCol_Alfa	-	-	-	"The column in the airfoil tables that contains the angle of attack"	-
typedef	^	AD_InputFile	ReKi	InCol_Cl	-	-	-	"The column in the airfoil tables that contains the lift coefficient"	-
typedef	^	AD_InputFile	ReKi	InCol_Cd	-	-	-	"The column in the airfoil tables that contains the drag coefficient"	-
typedef	^	AD_InputFile	ReKi	InCol_Cm	-	-	-	"The column in the airfoil tables that contains the pitching-moment coefficient; use zero if there is no Cm column"	-
typedef	^	AD_InputFile	ReKi	InCol_Cpmin	-	-	-	"The column in the airfoil tables that contains the drag coefficient; use zero if there is no Cpmin column"	-
typedef	^	AD_InputFile	INTEGER	AFTabMod	-	-	-	"Interpolation method for multiple airfoil tables {1 = 1D on AoA (only first table is used); 2 = 2D on AoA and Re; 3 = 2D on AoA and UserProp}" -
typedef	^	AD_InputFile	IntKi	NumAFfiles	-	-	-	"Number of airfoil files used"	-
typedef	^	AD_InputFile	CHARACTER(1024)	FVWFileName	-	-	-	"FVW input filename"	"quoted string"
typedef	^	AD_InputFile	CHARACTER(1024)	AFNames	{:}	-	-	"Airfoil file names (NumAF lines)"	"quoted strings"
typedef	^	AD_InputFile	LOGICAL	UseBlCm	-	-	-	"Include aerodynamic pitching moment in calculations?"	flag
#typedef	^	AD_InputFile	IntKi	NumBlNds	-	-	-	"Number of blade nodes used in the analysis"	-
typedef	^	AD_InputFile	LOGICAL	SumPrint	-	-	-	"Generate a summary file listing input options and interpolated properties to "<rootname>.AD.sum"?"	flag
typedef	^	AD_InputFile	IntKi	NBlOuts	-	-	-	"Number of blade node outputs [0 - 9]"	-
typedef	^	AD_InputFile	IntKi	BlOutNd	{9}	-	-	"Blade nodes whose values will be output"	-
typedef	^	AD_InputFile	IntKi	NTwOuts	-	-	-	"Number of tower node outputs [0 - 9]"	-
typedef	^	AD_InputFile	IntKi	TwOutNd	{9}	-	-	"Tower nodes whose values will be output"	-
typedef	^	AD_InputFile	IntKi	NumOuts	-	-	-	"Number of parameters in the output list (number of outputs requested)"	-
typedef	^	AD_InputFile	CHARACTER(ChanLen)	OutList	{:}	-	-	"List of user-requested output channels"	-
typedef	^	AD_InputFile	ReKi	tau1_const	-	-	-	"time constant for DBEMT [used only when WakeMod=2 and DBEMT_Mod/=2]"	s
typedef	^	AD_InputFile	IntKi	DBEMT_Mod	-	-	-	"Type of dynamic BEMT (DBEMT) model {1=constant tau1, 2=time-dependent tau1}"	-
typedef	^	AD_InputFile	IntKi	BldNd_NumOuts	-	-	-	"Number of requested output channels per blade node (AD_AllBldNdOuts)"	-
typedef	^	AD_InputFile	CHARACTER(ChanLen)	BldNd_OutList	{:}	-	-	"List of user-requested output channels (AD_AllBldNdOuts)"	-
#typedef  ^  AD_InputFile   IntKi BldNd_BlOutNd {:} - - "The blade nodes to actually output (AD_AllBldNdOuts)" -
typedef  ^  AD_InputFile   CHARACTER(1024) BldNd_BlOutNd_Str - - - "String to parse for the blade nodes to actually output (AD_AllBldNdOuts)" -
typedef  ^  AD_InputFile   IntKi BldNd_BladesOut - - - "The blades to output (AD_AllBldNdOuts)" -
#typedef  ^  AD_InputFile   CHARACTER(1024) BldNd_BladesOut_Str - - - "String to parse for the he blades to output (AD_AllBldNdOuts)" -
typedef  ^  AD_InputFile   ReKi             UAStartRad  -  -  - Starting radius for dynamic stall (fraction of rotor radius)
typedef  ^  AD_InputFile   ReKi             UAEndRad    -  -  - Ending radius for dynamic stall (fraction of rotor radius)
typedef  ^  AD_InputFile   RotInputFile  rotors {:} - - "Rotor (blades and tower) input file data" -




# ..... States ....................................................................................................................
# Define continuous (differentiable) states here:
typedef	^	RotContinuousStateType	BEMT_ContinuousStateType	BEMT	-	-	-	"Continuous states from the BEMT module"	-
typedef	^	RotContinuousStateType	AA_ContinuousStateType	AA	-	-	-	"Continuous states from the AA module"	-

typedef	^	ContinuousStateType	RotContinuousStateType	rotors	{:}	-	-	"Continuous states for each rotor"	-
typedef	^	ContinuousStateType	FVW_ContinuousStateType	FVW	-	-	-	"Continuous states from the FVW module"	-


# Define discrete (nondifferentiable) states here:
typedef	^	RotDiscreteStateType	BEMT_DiscreteStateType	BEMT	-	-	-	"Discrete states from the BEMT module"	-
typedef	^	RotDiscreteStateType	AA_DiscreteStateType	AA	-	-	-	"Discrete states from the AA module"	-

typedef	^	DiscreteStateType	RotDiscreteStateType	rotors	{:}	-	-	"Discrete states for each rotor"	-
typedef	^	DiscreteStateType	FVW_DiscreteStateType	FVW	-	-	-	"Discrete states from the FVW module"	-

# Define constraint states here:
typedef	^	RotConstraintStateType	BEMT_ConstraintStateType	BEMT	-	-	-	"Constraint states from the BEMT module"	-
typedef	^	RotConstraintStateType	AA_ConstraintStateType	AA	-	-	-	"Constraint states from the AA module"	-

typedef	^	ConstraintStateType	RotConstraintStateType	rotors	{:}	-	-	"Constraint states for each rotor"	-
typedef	^	ConstraintStateType	FVW_ConstraintStateType	FVW	-	-	-	"Constraint states from the FVW module"	-

# Define "other" states here:
typedef	^	RotOtherStateType	BEMT_OtherStateType	BEMT	-	-	-	"OtherStates from the BEMT module"	-
typedef	^	RotOtherStateType	AA_OtherStateType	AA	-	-	-	"OtherStates from the AA module"	-

typedef	^	OtherStateType	RotOtherStateType	rotors	{:}	-	-	"OtherStates from the BEMT module"	-
typedef	^	OtherStateType	FVW_OtherStateType	FVW	-	-	-	"OtherStates from the FVW module"	-
typedef	^	OtherStateType	ReKi	WakeLocationPoints	{:}{:}	-	-	"wake points velocity"	m/s


# Define misc/optimization variables (any data that are not considered actual states) here:
typedef	^	RotMiscVarType	BEMT_MiscVarType	BEMT	-	-	-	"MiscVars from the BEMT module"	-
typedef	^	RotMiscVarType	BEMT_OutputType	BEMT_y	-	-	-	"Outputs from the BEMT module"	-
typedef	^	RotMiscVarType	BEMT_InputType	BEMT_u	2	-	-	"Inputs to the BEMT module"	-
typedef	^	RotMiscVarType	AA_MiscVarType	AA	-	-	-	"MiscVars from the AA module"	-
typedef	^	RotMiscVarType	AA_OutputType	AA_y	-	-	-	"Outputs from the AA module"	-
typedef	^	RotMiscVarType	AA_InputType	AA_u	-	-	-	"Inputs to the AA module"	-

typedef	^	RotMiscVarType	ReKi	DisturbedInflow	{:}{:}{:}	-	-	"InflowOnBlade values modified by tower influence"	m/s
typedef	^	RotMiscVarType	R8Ki	orientationAnnulus	{:}{:}{:}{:}	-	-	"Coordinate system equivalent to BladeMotion Orientation, but without live sweep, blade-pitch, and twist angles"	-
typedef	^	RotMiscVarType	ReKi	AllOuts	{:}	-	-	"An array holding the value of all of the calculated (not only selected) output channels"	-
typedef	^	RotMiscVarType	ReKi	W_Twr	{:}	-	-	"relative wind speed normal to the tower at node j"	m/s
typedef	^	RotMiscVarType	ReKi	X_Twr	{:}	-	-	"local x-component of force per unit length of the jth node in the tower"	m/s
typedef	^	RotMiscVarType	ReKi	Y_Twr	{:}	-	-	"local y-component of force per unit length of the jth node in the tower"	m/s
typedef	^	RotMiscVarType	ReKi	Curve	{:}{:}	-	-	"curvature angle, saved for possible output to file"	rad
typedef	^	RotMiscVarType	ReKi	TwrClrnc	{:}{:}	-	-	"Distance between tower (including tower radius) and blade node (not including blade width), saved for possible output to file"	m
typedef	^	RotMiscVarType	ReKi	X	{:}{:}	-	-	"normal force per unit length (normal to the plane, not chord) of the jth node in the kth blade"	N/m
typedef	^	RotMiscVarType	ReKi	Y	{:}{:}	-	-	"tangential force per unit length (tangential to the plane, not chord) of the jth node in the kth blade"	N/m
typedef	^	RotMiscVarType	ReKi	Z	{:}{:}	-	-	"axial force per unit length (tangential to the plane, not chord) of the jth node in the kth blade"	N/m
typedef	^	RotMiscVarType	ReKi	M	{:}{:}	-	-	"pitching moment per unit length of the jth node in the kth blade"	Nm/m
typedef	^	RotMiscVarType	ReKi	Mx	{:}{:}	-	-	"pitching moment per unit length of the jth node in the kth blade (in x direction)"	Nm/m
typedef	^	RotMiscVarType	ReKi	My	{:}{:}	-	-	"pitching moment per unit length of the jth node in the kth blade  (in y direction)"	Nm/m
typedef	^	RotMiscVarType	ReKi	Mz	{:}{:}	-	-	"pitching moment per unit length of the jth node in the kth blade  (in z direction)"	Nm/m
typedef	^	RotMiscVarType	ReKi	V_DiskAvg	{3}	-	-	"disk-average relative wind speed"	m/s
typedef	^	RotMiscVarType	ReKi	yaw			-	-	-	    "Yaw calculated in  SetInputsForBEMT"	rad
typedef	^	RotMiscVarType	ReKi	tilt		-	-	-	    "tilt calculated in  SetInputsForBEMT"	rad
typedef	^	RotMiscVarType	ReKi	hub_theta_x_root	{:}	-	-	"angles saved for FAST.Farm"	rad
typedef	^	RotMiscVarType	ReKi	V_dot_x	-	-	-
typedef	^	RotMiscVarType	MeshType	HubLoad	-	-	-	"mesh at hub; used to compute an integral for mapping the output blade loads to a single point (for writing to file only)"	-
typedef	^	RotMiscVarType	MeshMapType	B_L_2_H_P	{:}	-	-	"mapping data structure to map each bladeLoad output mesh to the MiscVar%HubLoad mesh"
typedef	^	RotMiscVarType	ReKi	SigmaCavitCrit	{:}{:}	-	-	 "critical cavitation number-  inception value (above which cavit will occur)"   -
typedef	^	RotMiscVarType	ReKi	SigmaCavit	{:}{:}	-	-	  "cavitation number at node "   -
typedef	^	RotMiscVarType	Logical	CavitWarnSet {:}{:}	-	-	  "cavitation warning issued "   -
typedef	^	RotMiscVarType	ReKi	BlFB	{:}{:}{:}	-	-	  "buoyant force per unit length at blade node"   N/m
typedef	^	RotMiscVarType	ReKi	BlMB	{:}{:}{:}	-	-	  "buoyant moment per unit length at blade node"   Nm/m
typedef	^	RotMiscVarType	ReKi	TwrFB	{:}{:}	    -	-	  "buoyant force per unit length at tower node"   N/m
typedef	^	RotMiscVarType	ReKi	TwrMB	{:}{:}	    -	-	  "buoyant moment per unit length at tower node"   Nm/m
typedef	^	RotMiscVarType	ReKi	HubFB	{:}	        -	-	  "buoyant force at hub node"   N
typedef	^	RotMiscVarType	ReKi	HubMB	{:}  	    -	-	  "buoyant moment at hub node"   Nm
typedef	^	RotMiscVarType	ReKi	NacFB	{:}	        -	-	  "buoyant force at nacelle (tower top) node"   N
typedef	^	RotMiscVarType	ReKi	NacMB	{:}  	    -	-	  "buoyant moment at nacelle (tower top) node"   Nm
typedef	^	RotMiscVarType	MeshType	BladeRootLoad	{:}	-	-	"meshes at blade root; used to compute an integral for mapping the output blade loads to single points (for writing to file only)"	-
typedef	^	RotMiscVarType	MeshMapType	B_L_2_R_P	{:}	-	-	"mapping data structure to map each bladeLoad output mesh to corresponding MiscVar%BladeRootLoad mesh"
typedef	^	RotMiscVarType	MeshType	BladeBuoyLoadPoint	{:}	-	-	"point mesh for lumped buoyant blade loads"	-
typedef	^	RotMiscVarType	MeshType	BladeBuoyLoad	{:}	-	-	"line mesh for per unit length buoyant blade loads"	-
typedef	^	RotMiscVarType	MeshMapType	B_P_2_B_L	{:}	-	-	"mapping data structure to map buoyant blade point loads (m%BladeBuoyLoadPoint) to buoyant blade line loads (m%BladeBuoyLoad)"
typedef	^	RotMiscVarType	MeshType	TwrBuoyLoadPoint	-	-	-	"point mesh for lumped buoyant tower loads"	-
typedef	^	RotMiscVarType	MeshType	TwrBuoyLoad	-	-	-	"line mesh for per unit length buoyant tower loads"	-
typedef	^	RotMiscVarType	MeshMapType	T_P_2_T_L	-	-	-	"mapping data structure to map buoyant tower point loads (m%TwrBuoyLoadPoint) to buoyant tower line loads (m%TwrBuoyLoad)"
typedef	^	RotMiscVarType	Logical	FirstWarn_TowerStrike	-	-	-	"flag to avoid printing tower strike multiple times" -
typedef	^	RotMiscVarType	ReKi	AvgDiskVel	{3}	-	-	"disk-averaged U,V,W (undisturbed)"	m/s
typedef	^	RotMiscVarType	ReKi	AvgDiskVelDist	{3}	-	-	"disk-averaged U,V,W (disturbed)"	m/s
# TailFin
typedef	^	RotMiscVarType	ReKi	TFinAlpha	-	-	-	"Angle of attack for tailfin"
typedef	^	RotMiscVarType	ReKi	TFinRe   	-	-	-	"Reynolds number for tailfin"
typedef	^	RotMiscVarType	ReKi	TFinVrel 	-	-	-	"Orthogonal relative velocity nrom at the reference point"
typedef	^	RotMiscVarType	ReKi	TFinVund_i 	3	-	-	"Undisturbed wind velocity at the reference point of the fin in the inertial system"
typedef	^	RotMiscVarType	ReKi	TFinVind_i 	3	-	-	"Induced velocity at the reference point of the fin in the inertial system"
typedef	^	RotMiscVarType	ReKi	TFinVrel_i 	3	-	-	"Relative velocity at the reference point of the fin in the inertial system"
typedef	^	RotMiscVarType	ReKi	TFinSTV_i 	3	-	-	"Structural velocity at the reference point of the fin in the inertial system"
typedef	^	RotMiscVarType	ReKi	TFinF_i 	3	-	-	"Forces at the reference point of the fin in the inertial system"
typedef	^	RotMiscVarType	ReKi	TFinM_i 	3	-	-	"Moments at the reference point of the fin in the inertial system"

typedef	^	MiscVarType	RotMiscVarType	rotors	{:}-	-	-	"MiscVars for each rotor"	-
typedef	^	MiscVarType	FVW_InputType	FVW_u	:	-	-	"Inputs to the FVW module"	-