###################################################################################################################################
# Registry for FAST v8 in the FAST Modularization Framework
# This Registry file is used to create FAST_Types which contains data used in the FAST glue code.
# It also contains copy, destroy, pack, and unpack routines associated with each defined data types.
# See the NWTC Programmer's Handbook for further information on the format/contents of this file.
#
# Entries are of the form
# <keyword>	<ModuleName/ModName>	<TypeName>	<FieldType>	<FieldName>	<Dims>	<IO>	<DNAME>	<DESCRIP>	<UNITS>
#
# Use ^ as a shortcut for the value in the same column from the previous line.
###################################################################################################################################
# ...... Include files (definitions from NWTC Library and module components) ............................................................................
include	Registry_NWTC_Library.txt
usefrom	ElastoDyn_Registry.txt
usefrom	Registry_BeamDyn.txt
usefrom	ServoDyn_Registry.txt
usefrom	Registry-AD14.txt
usefrom	AeroDyn_Registry.txt
usefrom	SubDyn_Registry.txt
usefrom SeaState.txt
usefrom	HydroDyn.txt
usefrom	IceFloe_FASTRegistry.inp
usefrom	InflowWind.txt
usefrom	OpenFOAM_Registry.txt
usefrom	SC_DataEx_Registry.txt
usefrom	Registry_IceDyn.txt
usefrom	FEAM_Registry.txt
usefrom	MAP_Registry.txt
usefrom	MoorDyn_Registry.txt
usefrom	OrcaFlexInterface.txt
usefrom	ExtPtfm_MCKF_Registry.txt

# ...... Constants ............................................................................

# MODULE IDENTIFIERS:
# NOTE WELL: The order of these modules is the order they get written to the output file;
# Make sure the module identifiers start at 1 and that this order matches the orders in WrOutputLine and FAST_InitOutput!!!
param	FAST	-	INTEGER	Module_Unknown	-	-1	-	"Unknown"	-
param	^	-	INTEGER	Module_None	-	0	-	"No module selected"	-
param	^	-	INTEGER	Module_Glue	-	1	-	"Glue code"	-
param	^	-	INTEGER	Module_IfW	-	2	-	"InflowWind"	-
param	^	-	INTEGER	Module_OpFM	-	3	-	"OpenFOAM"	-
param	^	-	INTEGER	Module_ED	-	4	-	"ElastoDyn"	-
param	^	-	INTEGER	Module_BD	-	5	-	"BeamDyn"	-
param	^	-	INTEGER	Module_AD14	-	6	-	"AeroDyn14"	-
param	^	-	INTEGER	Module_AD	-	7	-	"AeroDyn"	-
param	^	-	INTEGER	Module_SrvD	-	8	-	"ServoDyn"	-
param	^	-	INTEGER	Module_SeaSt -	9	-	"SeaState"	-
param	^	-	INTEGER	Module_HD	-	10	-	"HydroDyn"	-
param	^	-	INTEGER	Module_SD	-	11	-	"SubDyn"	-
param	^	-	INTEGER	Module_ExtPtfm	-	12	-	"External Platform Loading MCKF"	-
param	^	-	INTEGER	Module_MAP	-	13	-	"MAP (Mooring Analysis Program)"	-
param	^	-	INTEGER	Module_FEAM	-	14	-	"FEAMooring"	-
param	^	-	INTEGER	Module_MD	-	15	-	"MoorDyn"	-
param	^	-	INTEGER	Module_Orca	-	16	-	"OrcaFlex integration (HD/Mooring)"	-
param	^	-	INTEGER	Module_IceF	-	17	-	"IceFloe"	-
param	^	-	INTEGER	Module_IceD	-	18	-	"IceDyn"	-
param	^	-	INTEGER	NumModules	-	18	-	"The number of modules available in FAST"	-
# Other Constants
param	^	-	INTEGER	MaxNBlades	-	3	-	"Maximum number of blades allowed on a turbine"	-
param	^	-	INTEGER	IceD_MaxLegs	-	4	-	"because I don't know how many legs there are before calling IceD_Init and I don't want to copy the data because of sibling mesh issues, I'm going to allocate IceD based on this number"	-
# ...... Data for VTK surface visualization ............................................................................
typedef	^	FAST_VTK_BLSurfaceType	SiKi	AirfoilCoords	{:}{:}{:}	-	-	"x,y coordinates for airfoil around each blade node on a blade (relative to reference)"	-
# ...... Data for VTK surface visualization ............................................................................
typedef	^	FAST_VTK_SurfaceType	IntKi	NumSectors	-	-	-	"number of sectors in which to split circles (higher number gives smoother surface)"	-
typedef	^	FAST_VTK_SurfaceType	SiKi	HubRad	-	-	-	"Preconed hub radius (distance from the rotor apex to the blade root)"	m
typedef	^	FAST_VTK_SurfaceType	SiKi	GroundRad	-	-	-	"radius for plotting circle on ground"	m
typedef	^	FAST_VTK_SurfaceType	SiKi	NacelleBox	{3}{8}	-	-	"X-Y-Z locations of 8 points that define the nacelle box, relative to the nacelle position"	m
typedef	^	FAST_VTK_SurfaceType	SiKi	TowerRad	{:}	-	-	"radius of each ED tower node"	m
typedef	^	FAST_VTK_SurfaceType	IntKi	NWaveElevPts	{2}	-	-	"number of points for wave elevation visualization"	-
typedef	^	FAST_VTK_SurfaceType	SiKi	WaveElevXY	{:}{:}	-	-	"X-Y locations for WaveElev output (for visualization).  First dimension is the X (1) and Y (2) coordinate.  Second dimension is the point number."	"m,-"
typedef	^	FAST_VTK_SurfaceType	SiKi	WaveElev	{:}{:}	-	-	"wave elevation at WaveElevXY; first dimension is time step; second dimension is point number"	"m,-"
typedef	^	FAST_VTK_SurfaceType	FAST_VTK_BLSurfaceType	BladeShape	{:}	-	-	"AirfoilCoords for each blade"	m
typedef	^	FAST_VTK_SurfaceType	SiKi	MorisonRad	{:}	-	-	"radius of each Morison node"	m


typedef   ^   FAST_VTK_ModeShapeType   CHARACTER(1024)  CheckpointRoot -   -  -  "name of the checkpoint file written by FAST when linearization data was produced"
typedef   ^   FAST_VTK_ModeShapeType   CHARACTER(1024)  MatlabFileName -   -  -  "name of the file with eigenvectors written by Matlab"
typedef   ^   FAST_VTK_ModeShapeType   IntKi    VTKLinModes         -      -  -  "Number of modes to visualize" -
typedef   ^   FAST_VTK_ModeShapeType   IntKi    VTKModes          {:}      -  -  "Which modes to visualize" -
typedef   ^   FAST_VTK_ModeShapeType   IntKi    VTKLinTim           -      -  -  "Switch to make one animation for all LinTimes together (1) or separate animations for each LinTimes(2)" -
typedef   ^   FAST_VTK_ModeShapeType   IntKi    VTKNLinTimes        -      -  -  "number of linearization times to use when VTKLinTim==2" -
typedef   ^   FAST_VTK_ModeShapeType   ReKi     VTKLinScale         -      -  -  "Mode shape visualization scaling factor" -
typedef   ^   FAST_VTK_ModeShapeType   ReKi     VTKLinPhase         -      -  -  "Phase when making one animation for all LinTimes together (used only when VTKLinTim=1)" -
typedef   ^   FAST_VTK_ModeShapeType   R8Ki     DampingRatio    {:}        -  -  "damping ratios from mbc3 analysis" -
typedef   ^   FAST_VTK_ModeShapeType   R8Ki     NaturalFreq_Hz  {:}        -  -  "natural frequency from mbc3 analysis" -
typedef   ^   FAST_VTK_ModeShapeType   R8Ki     DampedFreq_Hz   {:}        -  -  "damped frequency from mbc3 analysis" -
typedef   ^   FAST_VTK_ModeShapeType   R8Ki     x_eig_magnitude {:}{:}{:}  -  -  "magnitude of eigenvector (dimension 1=state, dim 2= azimuth, dim 3 = mode)" -
typedef   ^   FAST_VTK_ModeShapeType   R8Ki     x_eig_phase     {:}{:}{:}  -  -  "phase of eigenvector (dimension 1=state, dim 2= azimuth, dim 3 = mode)" -


# ..... FAST_ParameterType data .......................................................................................................
# Misc data for coupling:
typedef	FAST	FAST_ParameterType	DbKi	DT	-	-	-	"Integration time step [global time]"	s
typedef	^	FAST_ParameterType	DbKi	DT_module	{NumModules}	-	-	"Integration time step [global time]"	s
typedef	^	FAST_ParameterType	IntKi	n_substeps	{NumModules}	-	-	"The number of module substeps for advancing states from t_global to t_global_next"	-
typedef	^	FAST_ParameterType	INTEGER	n_TMax_m1	-	-	-	"The time step of TMax - dt (the end time of the simulation)"	(-)
typedef	^	FAST_ParameterType	DbKi	TMax	-	-	-	"Total run time"	s
typedef	^	FAST_ParameterType	IntKi	InterpOrder	-	-	-	"Interpolation order {0,1,2}"	-
typedef	^	FAST_ParameterType	IntKi	NumCrctn	-	-	-	"Number of correction iterations"	-
typedef	^	FAST_ParameterType	IntKi	KMax	-	-	-	"Maximum number of input-output-solve iterations (KMax >= 1)"	-
typedef	^	FAST_ParameterType	IntKi	numIceLegs	-	-	-	"number of suport-structure legs in contact with ice (IceDyn coupling)"	-
typedef	^	FAST_ParameterType	IntKi	nBeams	-	-	-	"number of BeamDyn instances"	-
typedef	^	FAST_ParameterType	LOGICAL	BD_OutputSibling	-	-	-	"flag to determine if BD input is sibling of output mesh"	-
typedef	^	FAST_ParameterType	LOGICAL	ModuleInitialized	{NumModules}	-	-	"An array determining if the module has been initialized"	-
# Data for Jacobians:
typedef	^	FAST_ParameterType	DbKi	DT_Ujac	-	-	-	"Time between when we need to re-calculate these Jacobians"	s
typedef	^	FAST_ParameterType	Reki	UJacSclFact	-	-	-	"Scaling factor used to get similar magnitudes between accelerations, forces, and moments in Jacobians"	-
typedef	^	FAST_ParameterType	IntKi	SizeJac_Opt1	{9}	-	-	"(1)=size of matrix; (2)=size of ED portion; (3)=size of SD portion [2 meshes]; (4)=size of HD portion; (5)=size of BD portion blade 1; (6)=size of BD portion blade 2; (7)=size of BD portion blade 3; (8)=size of Orca portion; (9)=size of ExtPtfm portion;"	-
typedef	^	FAST_ParameterType	IntKi	SolveOption	-	-	-	"Switch to determine which solve option we are going to use (see Solve_FullOpt1, etc)"	-
# Feature switches and flags:
typedef	^	FAST_ParameterType	IntKi	CompElast	-	-	-	"Compute blade loads (switch) {Module_ED; Module_BD}"	-
typedef	^	FAST_ParameterType	IntKi	CompInflow	-	-	-	"Compute inflow wind conditions (switch) {Module_None; Module_IfW; Module_OpFM}"	-
typedef	^	FAST_ParameterType	IntKi	CompAero	-	-	-	"Compute aerodynamic loads (switch) {Module_None; Module_AD14; Module_AD}"	-
typedef	^	FAST_ParameterType	IntKi	CompServo	-	-	-	"Compute control and electrical-drive dynamics (switch) {Module_None; Module_SrvD}"	-
typedef	^	FAST_ParameterType	IntKi	CompSeaSt   -	-	-	"Compute sea states; wave kinematics (switch) {Module_None; Module_SeaSt}"	-
typedef	^	FAST_ParameterType	IntKi	CompHydro	-	-	-	"Compute hydrodynamic loads (switch) {Module_None; Module_HD}"	-
typedef	^	FAST_ParameterType	IntKi	CompSub	-	-	-	"Compute sub-structural dynamics (switch) {Module_None; Module_HD}"	-
typedef	^	FAST_ParameterType	IntKi	CompMooring	-	-	-	"Compute mooring system (switch) {Module_None; Module_MAP; Module_FEAM; Module_MD; Module_Orca}"	-
typedef	^	FAST_ParameterType	IntKi	CompIce	-	-	-	"Compute ice loading (switch) {Module_None; Module_IceF, Module_IceD}"	-
typedef	^	FAST_ParameterType	IntKi	MHK	        -	-	-	"MHK turbine type (switch) {0=Not an MHK turbine; 1=Fixed MHK turbine; 2=Floating MHK turbine}"	-
typedef	^	FAST_ParameterType	LOGICAL	UseDWM	-	-	-	"Use the DWM module in AeroDyn"	-
typedef	^	FAST_ParameterType	LOGICAL	Linearize	-	-	-	"Linearization analysis (flag)"	-
typedef ^   FAST_ParameterType  IntKi   WaveFieldMod -  -   -   "Wave field handling (-) (switch) 0: use individual HydroDyn inputs without adjustment, 1: adjust wave phases based on turbine offsets from farm origin"   -
typedef	^	FAST_ParameterType	logical	FarmIntegration	-	.false.	-	"whether this is called from FAST.Farm (or another program that doesn't want FAST to call all of the init stuff first)"	-
typedef	^	FAST_ParameterType	SiKi	TurbinePos	{3}	-	-	"Initial position of turbine base (origin used for graphics)"	m
# Environmental conditions:
typedef ^   FAST_ParameterType  ReKi    Gravity	    -	-	-	"Gravitational acceleration" m/s^2
typedef ^   FAST_ParameterType  ReKi    AirDens     -   -   -   "Air density" kg/m^3
typedef ^   FAST_ParameterType  ReKi    WtrDens     -   -   -   "Water density" kg/m^3
typedef ^   FAST_ParameterType  ReKi    KinVisc     -   -   -   "Kinematic viscosity of working fluid" m^2/s
typedef ^   FAST_ParameterType  ReKi    SpdSound    -   -   -   "Speed of sound in working fluid" m/s
typedef ^   FAST_ParameterType  ReKi    Patm        -   -   -   "Atmospheric pressure" Pa
typedef ^   FAST_ParameterType  ReKi    Pvap        -   -   -   "Vapour pressure of working fluid" Pa
typedef ^   FAST_ParameterType  ReKi    WtrDpth     -   -   -   "Water depth" m
typedef ^   FAST_ParameterType  ReKi    MSL2SWL     -   -   -   "Offset between still-water level and mean sea level" m
# Input file names:
typedef	^	FAST_ParameterType	CHARACTER(1024)	EDFile	-	-	-	"The name of the ElastoDyn input file"	-
typedef	^	FAST_ParameterType	CHARACTER(1024)	BDBldFile	{MaxNBlades}	-	-	"Name of files containing BeamDyn inputs for each blade"	-
typedef	^	FAST_ParameterType	CHARACTER(1024)	InflowFile	-	-	-	"Name of file containing inflow wind input parameters"	-
typedef	^	FAST_ParameterType	CHARACTER(1024)	AeroFile	-	-	-	"Name of file containing aerodynamic input parameters"	-
typedef	^	FAST_ParameterType	CHARACTER(1024)	ServoFile	-	-	-	"Name of file containing control and electrical-drive input parameters"	-
typedef	^	FAST_ParameterType	CHARACTER(1024)	SeaStFile   -	-	-	"Name of file containing sea state input parameters"	-
typedef	^	FAST_ParameterType	CHARACTER(1024)	HydroFile	-	-	-	"Name of file containing hydrodynamic input parameters"	-
typedef	^	FAST_ParameterType	CHARACTER(1024)	SubFile	-	-	-	"Name of file containing sub-structural input parameters"	-
typedef	^	FAST_ParameterType	CHARACTER(1024)	MooringFile	-	-	-	"Name of file containing mooring system input parameters"	-
typedef	^	FAST_ParameterType	CHARACTER(1024)	IceFile	-	-	-	"Name of file containing ice loading input parameters"	-
#  Parameters for file/screen output
#typedef	^	FAST_ParameterType	DbKi	SttsTime	-	-	-	"Amount of time between screen status messages"	s
typedef	^	FAST_ParameterType	DbKi	TStart	-	-	-	"Time to begin tabular output"	s
typedef	^	FAST_ParameterType	DbKi	DT_Out	-	-	-	"Time step for tabular output"	s
typedef	^	FAST_ParameterType	LOGICAL	WrSttsTime	-	-	-	"Whether we should write the status times to the screen"	-
typedef	^	FAST_ParameterType	INTEGER	n_SttsTime	-	-	-	"Number of time steps between screen status messages"	-
typedef	^	FAST_ParameterType	INTEGER	n_ChkptTime	-	-	-	"Number of time steps between writing checkpoint files"	-
typedef	^	FAST_ParameterType	INTEGER	n_DT_Out	-	-	-	"Number of time steps between writing a line in the time-marching output files"	-
typedef	^	FAST_ParameterType	INTEGER	n_VTKTime	-	-	-	"Number of time steps between writing VTK files"	-
typedef	^	FAST_ParameterType	IntKi	TurbineType	-	-	-	"Type_LandBased, Type_Offshore_Fixed, Type_Offshore_Floating, Type_MHK_Fixed, or Type_MHK_Floating"	-
typedef	^	FAST_ParameterType	LOGICAL	WrBinOutFile	-	-	-	"Write a binary output file? (.outb)"	-
typedef	^	FAST_ParameterType	LOGICAL	WrTxtOutFile	-	-	-	"Write a text (formatted) output file? (.out)"	-
typedef	^	FAST_ParameterType	IntKi	WrBinMod	-	-	-	"If writing binary, which file format is to be written [1, 2, or 3]"	-
typedef	^	FAST_ParameterType	LOGICAL	SumPrint	-	-	-	"Print summary data to file? (.sum)"	-
typedef	^	FAST_ParameterType	INTEGER	WrVTK	-	0	-	"VTK Visualization data output: (switch) {0=none; 1=initialization data only; 2=animation}"	-
typedef	^	FAST_ParameterType	INTEGER	VTK_Type	-	-	-	"Type of  VTK visualization data: (switch) {1=surfaces; 2=basic meshes (lines/points); 3=all meshes (debug)}"	-
typedef	^	FAST_ParameterType	LOGICAL	VTK_fields	-	-	-	"Write mesh fields to VTK data files? (flag) {true/false}"	-
typedef	^	FAST_ParameterType	CHARACTER(1)	Delim	-	-	-	"Delimiter between columns of text output file (.out): space or tab"	-
typedef	^	FAST_ParameterType	CHARACTER(20)	OutFmt	-	-	-	"Format used for text tabular output (except time); resulting field should be 10 characters"	-
typedef	^	FAST_ParameterType	CHARACTER(20)	OutFmt_t	-	-	-	"Format used for time channel in text tabular output; resulting field should be 10 characters"	-
typedef	^	FAST_ParameterType	IntKi	FmtWidth	-	-	-	"width of the time OutFmt specifier"	-
typedef	^	FAST_ParameterType	IntKi	TChanLen	-	-	-	"width of the time channel"	-
typedef	^	FAST_ParameterType	CHARACTER(1024)	OutFileRoot	-	-	-	"The rootname of the output files"	-
typedef	^	FAST_ParameterType	CHARACTER(1024)	FTitle	-	-	-	"The description line from the FAST (glue-code) input file"	-
typedef	^	FAST_ParameterType	CHARACTER(1024)	VTK_OutFileRoot	-	"''"	-	"The rootname of the VTK output files"	-
typedef	^	FAST_ParameterType	INTEGER	VTK_tWidth	-	-	-	"Width of number of files for leading zeros in file name format"	-
typedef	^	FAST_ParameterType	DbKi	VTK_fps	-	-	-	"number of frames per second to output VTK data" -
typedef	^	FAST_ParameterType	FAST_VTK_SurfaceType	VTK_surface	-	-	-	"Data for VTK surface visualization"
typedef	^	FAST_ParameterType	CHARACTER(4)	Tdesc	-	-	-	"description of turbine ID (for FAST.Farm) screen printing"	

#  Parameters for linearization
typedef	^	FAST_ParameterType	LOGICAL	CalcSteady	-	-	-	"Calculate a steady-state periodic operating point before linearization [unused if Linearize=False]"	-
typedef	^	FAST_ParameterType	IntKi	TrimCase	-	-	-	"Controller parameter to be trimmed {1:yaw; 2:torque; 3:pitch} [unused if Linearize=False; used only if CalcSteady=True]"	-
typedef	^	FAST_ParameterType	ReKi	TrimTol	-	-	-	"Tolerance for the rotational speed convergence (>0) [unused if Linearize=False; used only if CalcSteady=True]"	-
typedef	^	FAST_ParameterType	ReKi	TrimGain	-	-	-	"Proportional gain for the rotational speed error (>0) [unused if Linearize=False; used only if CalcSteady=True]"	"rad/(rad/s) for yaw or pitch; Nm/(rad/s) for torque"
typedef	^	FAST_ParameterType	ReKi	Twr_Kdmp	-	-	-	"Damping factor for the tower [unused if Linearize=False; used only if CalcSteady=True]"	"N/(m/s)"
typedef	^	FAST_ParameterType	ReKi	Bld_Kdmp	-	-	-	"Damping factor for the blades [unused if Linearize=False; used only if CalcSteady=True]"	"N/(m/s)"
typedef	^	FAST_ParameterType	IntKi	NLinTimes	-	-	-	"Number of LinTimes, or equally-spaced azimuth steps in periodic linearized model (>0)[unused if Linearize=False]"	-
typedef  ^  FAST_ParameterType  DbKi    AzimDelta   -  -  -  "difference between two consecutive azimuth positions in CalcSteady algorithm" rad

typedef	^	FAST_ParameterType	IntKi	LinInputs	-	-	-	"Inputs included in linearization (switch) {0=none; 1=standard; 2=all module inputs (debug)} [unused if Linearize=False]"	-
typedef	^	FAST_ParameterType	IntKi	LinOutputs	-	-	-	"Outputs included in linearization (switch) {0=none; 1=from OutList(s); 2=all module outputs (debug)} [unused if Linearize=False]"	-
typedef	^	FAST_ParameterType	LOGICAL	LinOutJac	-	-	-	"Include full Jacabians in linearization output (for debug) (flag) [unused if Linearize=False; used only if LinInputs=LinOutputs=2]"	-
typedef	^	FAST_ParameterType	LOGICAL	LinOutMod	-	-	-	"Write module-level linearization output files in addition to output for full system? (flag) [unused if Linearize=False]"	-
typedef	^	FAST_ParameterType	FAST_VTK_ModeShapeType	VTK_modes	-	-	-	"Data for VTK mode-shape visualization" -

typedef ^       FAST_ParameterType	LOGICAL	UseSC 	-	-	-	"Use Supercontroller"	-
typedef	^	FAST_ParameterType	IntKi	Lin_NumMods	-	-	-	"number of modules in the linearization"
typedef	^	FAST_ParameterType	IntKi	Lin_ModOrder	{NumModules}	-	-	"indices that determine which order the modules are in the glue-code linearization matrix"
typedef  ^  FAST_ParameterType  IntKi    LinInterpOrder     -  -  -  "Interpolation order for CalcSteady solution" -
#typedef	^	FAST_ParameterType	LOGICAL	CheckHSSBrTrqC	-	-	-	"Flag to determine if we should check HSSBrTrqC extrapolation to ElastoDyn"	-


# SAVED OPERATING POINT DATA FOR VTKLIN (visualization of mode shapes from linearization analysis)
# ..... IceDyn OP data .......................................................................................................
typedef   FAST   FAST_LinStateSave   IceD_ContinuousStateType               x_IceD    {:}{:} -   -   "Continuous states"
typedef   ^      ^                   IceD_DiscreteStateType                xd_IceD    {:}{:} -   -   "Discrete states"
typedef   ^      ^                   IceD_ConstraintStateType               z_IceD    {:}{:} -   -   "Constraint states"
typedef   ^      ^                   IceD_OtherStateType              OtherSt_IceD    {:}{:} -   -   "Other states"
typedef   ^      ^                   IceD_InputType                         u_IceD    {:}{:} -   -   "System inputs"
# ..... BeamDyn OP data .......................................................................................................
typedef   FAST   FAST_LinStateSave   BD_ContinuousStateType                 x_BD      {:}{:} -   -   "Continuous states"
typedef   ^      ^                   BD_DiscreteStateType                  xd_BD      {:}{:} -   -   "Discrete states"
typedef   ^      ^                   BD_ConstraintStateType                 z_BD      {:}{:} -   -   "Constraint states"
typedef   ^      ^                   BD_OtherStateType                OtherSt_BD      {:}{:} -   -   "Other states"
typedef   ^      ^                   BD_InputType                           u_BD      {:}{:} -   -   "System inputs"
# ..... ElastoDyn OP data .....................................................................................................
typedef   FAST   FAST_LinStateSave   ED_ContinuousStateType                 x_ED      {:}    -   -   "Continuous states"
typedef   ^      ^                   ED_DiscreteStateType                  xd_ED      {:}    -   -   "Discrete states"
typedef   ^      ^                   ED_ConstraintStateType                 z_ED      {:}    -   -   "Constraint states"
typedef   ^      ^                   ED_OtherStateType                OtherSt_ED      {:}    -   -   "Other states"
typedef   ^      ^                   ED_InputType                           u_ED      {:}    -   -   "System inputs"
# ..... ServoDyn OP data .......................................................................................................
typedef   FAST   FAST_LinStateSave   SrvD_ContinuousStateType               x_SrvD    {:}    -   -   "Continuous states"
typedef   ^      ^                   SrvD_DiscreteStateType                xd_SrvD    {:}    -   -   "Discrete states"
typedef   ^      ^                   SrvD_ConstraintStateType               z_SrvD    {:}    -   -   "Constraint states"
typedef   ^      ^                   SrvD_OtherStateType              OtherSt_SrvD    {:}    -   -   "Other states"
typedef   ^      ^                   SrvD_InputType                         u_SrvD    {:}    -   -   "System inputs"
# ..... No AeroDyn14 data .....................................................................................................
# ..... AeroDyn OP data .......................................................................................................
typedef   FAST   FAST_LinStateSave   AD_ContinuousStateType                 x_AD      {:}    -   -   "Continuous states"
typedef   ^      ^                   AD_DiscreteStateType                  xd_AD      {:}    -   -   "Discrete states"
typedef   ^      ^                   AD_ConstraintStateType                 z_AD      {:}    -   -   "Constraint states"
typedef   ^      ^                   AD_OtherStateType                OtherSt_AD      {:}    -   -   "Other states"
typedef   ^      ^                   AD_InputType                           u_AD      {:}    -   -   "System inputs"
# ..... InflowWind OP data .......................................................................................................
typedef   FAST   FAST_LinStateSave   InflowWind_ContinuousStateType         x_IfW     {:}    -   -   "Continuous states"
typedef   ^      ^                   InflowWind_DiscreteStateType          xd_IfW     {:}    -   -   "Discrete states"
typedef   ^      ^                   InflowWind_ConstraintStateType         z_IfW     {:}    -   -   "Constraint states"
typedef   ^      ^                   InflowWind_OtherStateType        OtherSt_IfW     {:}    -   -   "Other states"
typedef   ^      ^                   InflowWind_InputType                   u_IfW     {:}    -   -   "System inputs"
# ..... No OpenFOAM integration data .......................................................................................................
# ..... SubDyn OP data .......................................................................................................
typedef   FAST   FAST_LinStateSave   SD_ContinuousStateType                 x_SD      {:}    -   -   "Continuous states"
typedef   ^      ^                   SD_DiscreteStateType                  xd_SD      {:}    -   -   "Discrete states"
typedef   ^      ^                   SD_ConstraintStateType                 z_SD      {:}    -   -   "Constraint states"
typedef   ^      ^                   SD_OtherStateType                OtherSt_SD      {:}    -   -   "Other states"
typedef   ^      ^                   SD_InputType                           u_SD      {:}    -   -   "System inputs"
# ..... ExtPtfm OP data .......................................................................................................
typedef   FAST   FAST_LinStateSave   ExtPtfm_ContinuousStateType            x_ExtPtfm {:}    -   -   "Continuous states"
typedef   ^      ^                   ExtPtfm_DiscreteStateType             xd_ExtPtfm {:}    -   -   "Discrete states"
typedef   ^      ^                   ExtPtfm_ConstraintStateType            z_ExtPtfm {:}    -   -   "Constraint states"
typedef   ^      ^                   ExtPtfm_OtherStateType           OtherSt_ExtPtfm {:}    -   -   "Other states"
typedef   ^      ^                   ExtPtfm_InputType                      u_ExtPtfm {:}    -   -   "System inputs"
# ..... HydroDyn OP data .......................................................................................................
typedef   FAST   FAST_LinStateSave   HydroDyn_ContinuousStateType           x_HD      {:}    -   -   "Continuous states"
typedef   ^      ^                   HydroDyn_DiscreteStateType            xd_HD      {:}    -   -   "Discrete states"
typedef   ^      ^                   HydroDyn_ConstraintStateType           z_HD      {:}    -   -   "Constraint states"
typedef   ^      ^                   HydroDyn_OtherStateType          OtherSt_HD      {:}    -   -   "Other states"
typedef   ^      ^                   HydroDyn_InputType                     u_HD      {:}    -   -   "System inputs"
# ..... IceFloe OP data .......................................................................................................
typedef   FAST   FAST_LinStateSave   IceFloe_ContinuousStateType            x_IceF    {:}    -   -   "Continuous states"
typedef   ^      ^                   IceFloe_DiscreteStateType             xd_IceF    {:}    -   -   "Discrete states"
typedef   ^      ^                   IceFloe_ConstraintStateType            z_IceF    {:}    -   -   "Constraint states"
typedef   ^      ^                   IceFloe_OtherStateType           OtherSt_IceF    {:}    -   -   "Other states"
typedef   ^      ^                   IceFloe_InputType                      u_IceF    {:}    -   -   "System inputs"
# ..... MAP OP data .......................................................................................................
typedef   FAST   FAST_LinStateSave   MAP_ContinuousStateType                x_MAP     {:}    -   -   "Continuous states"
typedef   ^      ^                   MAP_DiscreteStateType                 xd_MAP     {:}    -   -   "Discrete states"
typedef   ^      ^                   MAP_ConstraintStateType                z_MAP     {:}    -   -   "Constraint states"
#typedef   ^      ^                   MAP_OtherStateType               OtherSt_MAP     {:}    -   -   "Other states"
typedef   ^      ^                   MAP_InputType                          u_MAP     {:}    -   -   "System inputs"
# ..... FEAMooring OP data .......................................................................................................
typedef   FAST   FAST_LinStateSave   FEAM_ContinuousStateType               x_FEAM    {:}    -   -   "Continuous states"
typedef   ^      ^                   FEAM_DiscreteStateType                xd_FEAM    {:}    -   -   "Discrete states"
typedef   ^      ^                   FEAM_ConstraintStateType               z_FEAM    {:}    -   -   "Constraint states"
typedef   ^      ^                   FEAM_OtherStateType              OtherSt_FEAM    {:}    -   -   "Other states"
typedef   ^      ^                   FEAM_InputType                         u_FEAM    {:}    -   -   "System inputs"
# ..... MoorDyn OP data .......................................................................................................
typedef   FAST   FAST_LinStateSave   MD_ContinuousStateType                 x_MD      {:}    -   -   "Continuous states"
typedef   ^      ^                   MD_DiscreteStateType                  xd_MD      {:}    -   -   "Discrete states"
typedef   ^      ^                   MD_ConstraintStateType                 z_MD      {:}    -   -   "Constraint states"
typedef   ^      ^                   MD_OtherStateType                OtherSt_MD      {:}    -   -   "Other states"
typedef   ^      ^                   MD_InputType                           u_MD      {:}    -   -   "System inputs"
# ..... NO OrcaFlex OP data .......................................................................................................

# ..... FAST_LinType data .......................................................................................................
typedef	FAST	FAST_LinType	CHARACTER(LinChanLen)	Names_u	{:}	-	-	"Names of the linearized inputs"
typedef	^	FAST_LinType	CHARACTER(LinChanLen)	Names_y	{:}	-	-	"Names of the linearized outputs"
typedef	^	FAST_LinType	CHARACTER(LinChanLen)	Names_x	{:}	-	-	"Names of the linearized continuous states"
typedef	^	FAST_LinType	CHARACTER(LinChanLen)	Names_xd	{:}	-	-	"Names of the linearized discrete states"
typedef	^	FAST_LinType	CHARACTER(LinChanLen)	Names_z	{:}	-	-	"Names of the linearized constraint states"
typedef	^	FAST_LinType	ReKi	op_u	{:}	-	-	"input operating point"
typedef	^	FAST_LinType	ReKi	op_y	{:}	-	-	"output operating point"
typedef	^	FAST_LinType	ReKi	op_x	{:}	-	-	"continuous state operating point"
typedef	^	FAST_LinType	ReKi	op_dx	{:}	-	-	"1st time derivative of continuous state operating point"