! This hub-height wind-speed file was generated by TurbSim (from OpenFAST-HEAD-HASH-NOTFOUND) on 12-Dec-2022 at 19:42:28.
!
! The requested statistics for this data were:
!    Mean Total Wind Speed =   17.172 m/s
!    Turbulence Intensity  =   17.241%
!
!   Time  HorSpd  WndDir  VerSpd  HorShr  VerShr  LnVShr  GstSpd
!  (sec)   (m/s)   (deg)   (m/s)     (-)     (-)     (-)   (m/s)
   0.000   6.0     -4.89    2.13   0.000   0.200   0.000    0.00
   0.050   6.0   -3.93    0.44   0.000   0.200   0.000    0.00
   0.100   6.0   -8.01    0.67   0.000   0.200   0.000    0.00
   0.150   6.0   -8.50   -0.69   0.000   0.200   0.000    0.00
   0.200   6.0   -8.57   -0.62   0.000   0.200   0.000    0.00
   0.250   6.0   -7.82    0.12   0.000   0.200   0.000    0.00
   0.300   6.0   -8.56    0.30   0.000   0.200   0.000    0.00
   0.350   6.0  -10.82    1.23   0.000   0.200   0.000    0.00
   0.400   19.64  -13.18    2.32   0.000   0.200   0.000    0.00
   0.450   18.78  -13.51    1.80   0.000   0.200   0.000    0.00
   0.500   19.08  -11.15    3.15   0.000   0.200   0.000    0.00
   0.550   18.59   -9.97    2.48   0.000   0.200   0.000    0.00
   0.600   18.82   -9.18    1.81   0.000   0.200   0.000    0.00
   0.650   18.49   -7.64    1.94   0.000   0.200   0.000    0.00
   0.700   17.45   -9.40    0.93   0.000   0.200   0.000    0.00
   0.750   17.61  -10.19    0.39   0.000   0.200   0.000    0.00
   0.800   17.50   -8.67    0.85   0.000   0.200   0.000    0.00
   0.850   17.55  -13.58    1.76   0.000   0.200   0.000    0.00
   0.900   18.33  -14.87    1.11   0.000   0.200   0.000    0.00
   0.950   18.49  -14.15    0.72   0.000   0.200   0.000    0.00
   1.000   17.89  -10.92    0.77   0.000   0.200   0.000    0.00
   1.050   17.09  -10.99    0.65   0.000   0.200   0.000    0.00
   1.100   17.32   -8.80    0.74   0.000   0.200   0.000    0.00
   1.150   17.75   -8.52   -0.02   0.000   0.200   0.000    0.00
   1.200   18.04   -9.78    0.67   0.000   0.200   0.000    0.00
   1.250   17.39   -9.57    0.03   0.000   0.200   0.000    0.00
   1.300   17.90  -11.76   -0.70   0.000   0.200   0.000    0.00
   1.350   18.34   -9.42    0.38   0.000   0.200   0.000    0.00
   1.400   19.46   -6.94    1.69   0.000   0.200   0.000    0.00
   1.450   19.64   -7.30    3.36   0.000   0.200   0.000    0.00
   1.500   19.24   -4.19    2.32   0.000   0.200   0.000    0.00
   1.550   18.98   -2.27    2.12   0.000   0.200   0.000    0.00
   1.600   19.32    1.20    2.57   0.000   0.200   0.000    0.00
   1.650   18.73    1.90    2.86   0.000   0.200   0.000    0.00
   1.700   18.15    3.77    2.48   0.000   0.200   0.000    0.00
   1.750   18.33    3.32    2.53   0.000   0.200   0.000    0.00
   1.800   17.96    3.56    2.82   0.000   0.200   0.000    0.00
   1.850   16.95    1.02    2.44   0.000   0.200   0.000    0.00
   1.900   16.92   -1.48    2.51   0.000   0.200   0.000    0.00
   1.950   17.60   -2.38    3.20   0.000   0.200   0.000    0.00
   2.000   18.18   -0.68    3.61   0.000   0.200   0.000    0.00
   2.050   17.67    1.19    3.34   0.000   0.200   0.000    0.00
   2.100   17.38   -3.01    4.71   0.000   0.200   0.000    0.00
   2.150   17.91   -3.50    4.65   0.000   0.200   0.000    0.00
   2.200   17.70   -5.78    3.93   0.000   0.200   0.000    0.00
   2.250   17.07   -0.62    4.58   0.000   0.200   0.000    0.00
   2.300   17.41    1.89    4.55   0.000   0.200   0.000    0.00
   2.350   17.25    5.08    3.77   0.000   0.200   0.000    0.00
   2.400   17.41    9.68    3.73   0.000   0.200   0.000    0.00
   2.450   17.86    3.54    4.09   0.000   0.200   0.000    0.00
   2.500   18.45    3.62    3.02   0.000   0.200   0.000    0.00
   2.550   18.74    3.06    2.85   0.000   0.200   0.000    0.00
   2.600   17.86    5.88    1.59   0.000   0.200   0.000    0.00
   2.650   18.22    5.46    1.35   0.000   0.200   0.000    0.00
   2.700   17.97    4.78    1.77   0.000   0.200   0.000    0.00
   2.750   18.65    4.98    1.30   0.000   0.200   0.000    0.00
   2.800   19.66    6.76    0.61   0.000   0.200   0.000    0.00
   2.850   18.64    1.96    0.53   0.000   0.200   0.000    0.00
   2.900   19.44    4.13   -0.30   0.000   0.200   0.000    0.00
   2.950   19.80    0.65    0.61   0.000   0.200   0.000    0.00
   3.000   20.45    3.32    0.84   0.000   0.200   0.000    0.00
   3.050   21.19    2.37   -0.65   0.000   0.200   0.000    0.00
   3.100   20.29    3.61   -1.93   0.000   0.200   0.000    0.00
   3.150   19.47    1.99   -2.09   0.000   0.200   0.000    0.00
   3.200   19.79    1.34   -1.57   0.000   0.200   0.000    0.00
   3.250   19.78    1.75   -0.49   0.000   0.200   0.000    0.00
   3.300   20.18    4.82    0.35   0.000   0.200   0.000    0.00
   3.350   18.28    4.43    0.62   0.000   0.200   0.000    0.00
   3.400   18.15    4.25   -0.61   0.000   0.200   0.000    0.00
   3.450   18.68    5.22   -0.27   0.000   0.200   0.000    0.00
   3.500   17.22    6.19   -0.63   0.000   0.200   0.000    0.00
   3.550   17.49    5.77    0.17   0.000   0.200   0.000    0.00
   3.600   17.02    7.45   -0.22   0.000   0.200   0.000    0.00
   3.650   16.16    7.81   -1.43   0.000   0.200   0.000    0.00
   3.700   16.12    2.16   -0.70   0.000   0.200   0.000    0.00
   3.750   16.03   -1.38   -0.98   0.000   0.200   0.000    0.00
   3.800   17.38   -0.86   -0.04   0.000   0.200   0.000    0.00
   3.850   17.79    3.73   -0.19   0.000   0.200   0.000    0.00
   3.900   16.90   11.54    1.07   0.000   0.200   0.000    0.00
   3.950   16.94    8.41    2.26   0.000   0.200   0.000    0.00
   4.000   16.38   10.38    2.17   0.000   0.200   0.000    0.00
   4.050   14.62    6.07    1.48   0.000   0.200   0.000    0.00
   4.100   14.59    5.09    2.16   0.000   0.200   0.000    0.00
   4.150   13.70    4.76    2.52   0.000   0.200   0.000    0.00
   4.200   13.51    4.07    2.75   0.000   0.200   0.000    0.00
   4.250   13.19    3.20    1.83   0.000   0.200   0.000    0.00
   4.300   12.81    6.89    0.64   0.000   0.200   0.000    0.00
   4.350   13.37    5.52    0.82   0.000   0.200   0.000    0.00
   4.400   13.63   -0.95    0.17   0.000   0.200   0.000    0.00
   4.450   13.32    1.03    0.88   0.000   0.200   0.000    0.00
   4.500   11.82    0.55   -0.47   0.000   0.200   0.000    0.00
   4.550   12.98    6.54   -0.60   0.000   0.200   0.000    0.00
   4.600   13.45    6.18   -0.35   0.000   0.200   0.000    0.00
   4.650   13.30    1.85    1.04   0.000   0.200   0.000    0.00
   4.700   13.03    5.99    0.32   0.000   0.200   0.000    0.00
   4.750   13.72   10.63    1.28   0.000   0.200   0.000    0.00
   4.800   13.38    7.28    3.11   0.000   0.200   0.000    0.00
   4.850   13.55    5.99    3.94   0.000   0.200   0.000    0.00
   4.900   13.58    4.59    3.42   0.000   0.200   0.000    0.00
   4.950   13.87    2.49    2.79   0.000   0.200   0.000    0.00
   5.000   12.80    0.82    3.41   0.000   0.200   0.000    0.00
   5.050   13.60   -1.74    2.34   0.000   0.200   0.000    0.00
   5.100   13.68   -0.97    3.41   0.000   0.200   0.000    0.00
   5.150   14.66    0.55    4.37   0.000   0.200   0.000    0.00
   5.200   15.30   -4.00    4.49   0.000   0.200   0.000    0.00
   5.250   14.50   -2.33    4.22   0.000   0.200   0.000    0.00
   5.300   13.73    1.54    4.97   0.000   0.200   0.000    0.00
   5.350   13.14    4.44    5.89   0.000   0.200   0.000    0.00
   5.400   14.34    2.28    4.27   0.000   0.200   0.000    0.00
   5.450   15.16    3.81    4.05   0.000   0.200   0.000    0.00
   5.500   15.61    1.89    3.91   0.000   0.200   0.000    0.00
   5.550   15.81    5.59    3.73   0.000   0.200   0.000    0.00
   5.600   15.28    9.00    3.31   0.000   0.200   0.000    0.00
   5.650   16.61    8.83    4.35   0.000   0.200   0.000    0.00
   5.700   16.93    3.03    4.00   0.000   0.200   0.000    0.00
   5.750   16.34    1.67    2.64   0.000   0.200   0.000    0.00
   5.800   16.71    0.33    2.51   0.000   0.200   0.000    0.00
   5.850   18.48   -0.17    2.35   0.000   0.200   0.000    0.00
   5.900   18.16   -0.84    1.77   0.000   0.200   0.000    0.00
   5.950   18.13    0.07    1.41   0.000   0.200   0.000    0.00
   6.000   18.29   -1.44    1.07   0.000   0.200   0.000    0.00
   6.050   18.77   -2.11   -0.19   0.000   0.200   0.000    0.00
   6.100   17.52    0.01    0.22   0.000   0.200   0.000    0.00
   6.150   17.50    2.25    0.00   0.000   0.200   0.000    0.00
   6.200   17.05    0.78   -1.03   0.000   0.200   0.000    0.00
   6.250   17.06    2.31   -0.47   0.000   0.200   0.000    0.00
   6.300   17.17    1.42    0.70   0.000   0.200   0.000    0.00
   6.350   16.71    0.95    1.23   0.000   0.200   0.000    0.00
   6.400   16.53    3.72    1.64   0.000   0.200   0.000    0.00
   6.450   17.10    8.97    3.33   0.000   0.200   0.000    0.00
   6.500   16.84    3.25    4.50   0.000   0.200   0.000    0.00
   6.550   16.98    1.92    4.38   0.000   0.200   0.000    0.00
   6.600   16.89   -0.62    3.40   0.000   0.200   0.000    0.00
   6.650   18.48   -1.59    2.58   0.000   0.200   0.000    0.00
   6.700   19.86    0.28    3.58   0.000   0.200   0.000    0.00
   6.750   19.57   -0.47    3.09   0.000   0.200   0.000    0.00
   6.800   19.15    1.93    2.47   0.000   0.200   0.000    0.00
   6.850   19.26   -1.66    3.12   0.000   0.200   0.000    0.00
   6.900   18.68   -1.61    3.77   0.000   0.200   0.000    0.00
   6.950   19.70   -2.45    3.21   0.000   0.200   0.000    0.00
   7.000   19.71   -4.21    3.27   0.000   0.200   0.000    0.00
   7.050   19.06   -5.21    2.90   0.000   0.200   0.000    0.00
   7.100   19.55   -9.61    2.81   0.000   0.200   0.000    0.00
   7.150   19.09  -12.57    2.70   0.000   0.200   0.000    0.00
   7.200   18.49  -12.49    3.41   0.000   0.200   0.000    0.00
   7.250   18.55  -12.54    2.90   0.000   0.200   0.000    0.00
   7.300   19.20   -8.36    2.48   0.000   0.200   0.000    0.00
   7.350   18.57   -6.58    1.65   0.000   0.200   0.000    0.00
   7.400   17.93   -6.74    2.41   0.000   0.200   0.000    0.00
   7.450   18.40   -9.68    1.53   0.000   0.200   0.000    0.00
   7.500   17.86  -14.45    1.09   0.000   0.200   0.000    0.00
   7.550   16.39  -11.11   -0.19   0.000   0.200   0.000    0.00
   7.600   16.54   -9.60    0.29   0.000   0.200   0.000    0.00
   7.650   17.22  -12.66    0.38   0.000   0.200   0.000    0.00
   7.700   17.55   -9.39    0.26   0.000   0.200   0.000    0.00
   7.750   17.58   -4.52    1.21   0.000   0.200   0.000    0.00
   7.800   17.82   -6.58    1.28   0.000   0.200   0.000    0.00
   7.850   18.53   -6.72    1.23   0.000   0.200   0.000    0.00
   7.900   17.27   -5.12    0.53   0.000   0.200   0.000    0.00
   7.950   16.20   -5.96    0.25   0.000   0.200   0.000    0.00
   8.000   17.42   -7.63    1.14   0.000   0.200   0.000    0.00
   8.050   17.25   -8.54    1.62   0.000   0.200   0.000    0.00
   8.100   16.20  -12.09    1.38   0.000   0.200   0.000    0.00
   8.150   14.86  -11.18    0.68   0.000   0.200   0.000    0.00
   8.200   15.39  -10.42    0.11   0.000   0.200   0.000    0.00
   8.250   15.03  -10.81    1.08   0.000   0.200   0.000    0.00
   8.300   15.91   -6.98    1.39   0.000   0.200   0.000    0.00
   8.350   17.29   -4.86    0.60   0.000   0.200   0.000    0.00
   8.400   16.50   -5.51   -0.77   0.000   0.200   0.000    0.00
   8.450   16.16   -2.19    0.78   0.000   0.200   0.000    0.00
   8.500   17.40   -0.01    0.45   0.000   0.200   0.000    0.00
   8.550   17.44    1.52    0.90   0.000   0.200   0.000    0.00
   8.600   17.06    1.50    1.76   0.000   0.200   0.000    0.00
   8.650   17.59    1.17    1.00   0.000   0.200   0.000    0.00
   8.700   18.19    3.10    0.85   0.000   0.200   0.000    0.00
   8.750   17.81    5.75    0.08   0.000   0.200   0.000    0.00
   8.800   16.68    4.66   -1.45   0.000   0.200   0.000    0.00
   8.850   16.74    2.35   -1.74   0.000   0.200   0.000    0.00
   8.900   17.10   -0.00   -0.64   0.000   0.200   0.000    0.00
   8.950   16.54    4.65    0.89   0.000   0.200   0.000    0.00
   9.000   16.44    0.61    1.04   0.000   0.200   0.000    0.00
   9.050   17.41   -0.34    1.00   0.000   0.200   0.000    0.00
   9.100   17.48    0.14    0.54   0.000   0.200   0.000    0.00
   9.150   18.01    0.66   -0.29   0.000   0.200   0.000    0.00
   9.200   16.88   -6.33    1.24   0.000   0.200   0.000    0.00
   9.250   16.96   -6.89    1.69   0.000   0.200   0.000    0.00
   9.300   16.83   -8.20    0.68   0.000   0.200   0.000    0.00
   9.350   17.00   -5.93    1.24   0.000   0.200   0.000    0.00
   9.400   17.06   -3.87    1.24   0.000   0.200   0.000    0.00
   9.450   17.29   -5.69    0.82   0.000   0.200   0.000    0.00
   9.500   17.00   -8.17    0.37   0.000   0.200   0.000    0.00
   9.550   16.01   -5.70    0.39   0.000   0.200   0.000    0.00
   9.600   15.45  -11.51   -0.41   0.000   0.200   0.000    0.00
   9.650   15.11  -13.02   -0.16   0.000   0.200   0.000    0.00
   9.700   15.53   -3.68   -0.38   0.000   0.200   0.000    0.00
   9.750   14.59   -3.52   -0.51   0.000   0.200   0.000    0.00
   9.800   15.97   -3.81   -0.62   0.000   0.200   0.000    0.00
   9.850   16.23   -1.94    0.32   0.000   0.200   0.000    0.00
   9.900   16.99   -3.03    1.54   0.000   0.200   0.000    0.00
   9.950   16.85   -4.24    1.71   0.000   0.200   0.000    0.00
  10.000   17.35   -4.06    1.01   0.000   0.200   0.000    0.00
  10.050   17.16   -1.86    0.97   0.000   0.200   0.000    0.00
  10.100   17.31   -0.60    0.96   0.000   0.200   0.000    0.00
  10.150   16.56   -0.30    0.29   0.000   0.200   0.000    0.00
  10.200   16.70    2.64    0.21   0.000   0.200   0.000    0.00
  10.250   17.12    2.90    0.75   0.000   0.200   0.000    0.00
  10.300   17.28    2.87    0.62   0.000   0.200   0.000    0.00
  10.350   16.11    2.40    0.54   0.000   0.200   0.000    0.00
  10.400   14.64    3.77   -0.28   0.000   0.200   0.000    0.00
  10.450   13.26    7.43    0.43   0.000   0.200   0.000    0.00
  10.500   12.29   10.40   -1.46   0.000   0.200   0.000    0.00
  10.550   11.86    3.37   -1.32   0.000   0.200   0.000    0.00
  10.600   12.19    1.50   -0.84   0.000   0.200   0.000    0.00
  10.650   11.07    1.83    0.50   0.000   0.200   0.000    0.00
  10.700   11.11   -0.36    1.29   0.000   0.200   0.000    0.00
  10.750   11.85    1.55   -0.59   0.000   0.200   0.000    0.00
  10.800   11.33   -3.20   -1.94   0.000   0.200   0.000    0.00
  10.850   10.94   -2.07   -1.88   0.000   0.200   0.000    0.00
  10.900   11.60    4.57   -1.43   0.000   0.200   0.000    0.00
  10.950   11.78    3.44   -0.82   0.000   0.200   0.000    0.00
  11.000   11.30    5.58   -2.59   0.000   0.200   0.000    0.00
  11.050   12.37    8.44   -3.60   0.000   0.200   0.000    0.00
  11.100   13.98    4.76   -3.72   0.000   0.200   0.000    0.00
  11.150   13.38   -0.45   -3.30   0.000   0.200   0.000    0.00
  11.200   12.66   -0.62   -3.60   0.000   0.200   0.000    0.00
  11.250   13.28    3.02   -3.23   0.000   0.200   0.000    0.00
  11.300   12.85    6.17   -3.24   0.000   0.200   0.000    0.00
  11.350   13.03    7.39   -2.36   0.000   0.200   0.000    0.00
  11.400   12.63   13.15   -0.94   0.000   0.200   0.000    0.00
  11.450   12.04   14.98   -2.09   0.000   0.200   0.000    0.00
  11.500   11.60   10.09   -2.74   0.000   0.200   0.000    0.00
  11.550   11.97   13.33   -1.30   0.000   0.200   0.000    0.00
  11.600   11.51   10.01    0.19   0.000   0.200   0.000    0.00
  11.650   11.12   10.89   -0.57   0.000   0.200   0.000    0.00
  11.700   11.20    9.13   -0.75   0.000   0.200   0.000    0.00
  11.750   11.75   12.03   -0.12   0.000   0.200   0.000    0.00
  11.800   10.27   14.47   -0.35   0.000   0.200   0.000    0.00
  11.850   10.74   17.09    0.65   0.000   0.200   0.000    0.00
  11.900    9.85   16.94    1.15   0.000   0.200   0.000    0.00
  11.950    9.38   17.24    1.09   0.000   0.200   0.000    0.00
  12.000   10.15   18.43   -0.53   0.000   0.200   0.000    0.00
  12.050    9.47   12.24   -0.62   0.000   0.200   0.000    0.00
  12.100   10.08   15.16   -0.53   0.000   0.200   0.000    0.00
  12.150   10.58    6.32   -0.32   0.000   0.200   0.000    0.00
  12.200   10.79    0.17    0.94   0.000   0.200   0.000    0.00
  12.250   11.59    1.50    1.48   0.000   0.200   0.000    0.00
  12.300   11.58    1.49    1.95   0.000   0.200   0.000    0.00
  12.350   10.76    3.79    2.70   0.000   0.200   0.000    0.00
  12.400   10.07    1.56    1.28   0.000   0.200   0.000    0.00
  12.450   10.52    2.40    1.76   0.000   0.200   0.000    0.00
  12.500   10.75    4.53    1.56   0.000   0.200   0.000    0.00
  12.550   10.19    5.16    2.14   0.000   0.200   0.000    0.00
  12.600   10.02    2.89    2.49   0.000   0.200   0.000    0.00
  12.650    9.92    2.53    3.39   0.000   0.200   0.000    0.00
  12.700    9.68    3.40    4.17   0.000   0.200   0.000    0.00
  12.750    9.30    4.85    4.37   0.000   0.200   0.000    0.00
  12.800    9.82   10.91    4.10   0.000   0.200   0.000    0.00
  12.850   10.79   12.67    2.98   0.000   0.200   0.000    0.00
  12.900   10.94    7.09    2.50   0.000   0.200   0.000    0.00
  12.950   10.87    4.86    2.73   0.000   0.200   0.000    0.00
  13.000   10.06    1.33    2.91   0.000   0.200   0.000    0.00
  13.050   10.95    1.14    3.28   0.000   0.200   0.000    0.00
  13.100   10.58    1.85    2.46   0.000   0.200   0.000    0.00
  13.150   11.19    2.06    1.22   0.000   0.200   0.000    0.00
  13.200   11.07    2.79    1.58   0.000   0.200   0.000    0.00
  13.250   11.51    9.71    1.02   0.000   0.200   0.000    0.00
  13.300   11.87   12.62   -0.16   0.000   0.200   0.000    0.00
  13.350   11.91   13.33    0.92   0.000   0.200   0.000    0.00
  13.400   12.25   12.31    1.90   0.000   0.200   0.000    0.00
  13.450   11.75   14.94    1.41   0.000   0.200   0.000    0.00
  13.500   11.75   13.58    2.50   0.000   0.200   0.000    0.00
  13.550   12.14    8.42    4.28   0.000   0.200   0.000    0.00
  13.600   12.99    7.82    3.90   0.000   0.200   0.000    0.00
  13.650   12.78    6.05    4.45   0.000   0.200   0.000    0.00
  13.700   12.78    7.37    2.90   0.000   0.200   0.000    0.00
  13.750   13.25    7.37    2.49   0.000   0.200   0.000    0.00
  13.800   13.59    8.41    2.57   0.000   0.200   0.000    0.00
  13.850   13.62    5.75    3.11   0.000   0.200   0.000    0.00
  13.900   13.39    6.29    3.78   0.000   0.200   0.000    0.00
  13.950   13.60    8.78    3.25   0.000   0.200   0.000    0.00
  14.000   14.64   10.85    3.21   0.000   0.200   0.000    0.00
  14.050   14.92    6.77    3.04   0.000   0.200   0.000    0.00
  14.100   14.73    9.67    2.25   0.000   0.200   0.000    0.00
  14.150   13.84   11.71    1.18   0.000   0.200   0.000    0.00
  14.200   13.43   10.15    1.54   0.000   0.200   0.000    0.00
  14.250   13.70   13.24    2.26   0.000   0.200   0.000    0.00
  14.300   13.78   13.68    2.87   0.000   0.200   0.000    0.00
  14.350   13.45    6.36    2.96   0.000   0.200   0.000    0.00
  14.400   14.47    8.56    3.73   0.000   0.200   0.000    0.00
  14.450   13.82    9.04    4.22   0.000   0.200   0.000    0.00
  14.500   14.21    8.36    4.28   0.000   0.200   0.000    0.00
  14.550   14.72   18.32    4.02   0.000   0.200   0.000    0.00
  14.600   14.59   19.15    3.73   0.000   0.200   0.000    0.00
  14.650   14.40   17.95    2.70   0.000   0.200   0.000    0.00
  14.700   14.34   14.38    2.85   0.000   0.200   0.000    0.00
  14.750   12.78   19.54    3.24   0.000   0.200   0.000    0.00
  14.800   12.62   15.92    4.40   0.000   0.200   0.000    0.00
  14.850   12.66   16.51    3.92   0.000   0.200   0.000    0.00
  14.900   13.33   13.00    4.61   0.000   0.200   0.000    0.00
  14.950   13.04   14.57    4.42   0.000   0.200   0.000    0.00
  15.000   12.69    9.98    3.54   0.000   0.200   0.000    0.00
  15.050   12.56   15.86    3.91   0.000   0.200   0.000    0.00
  15.100   13.43   11.99    3.60   0.000   0.200   0.000    0.00
  15.150   13.07    9.88    3.94   0.000   0.200   0.000    0.00
  15.200   12.77   14.44    2.56   0.000   0.200   0.000    0.00
  15.250   11.92   17.30    2.84   0.000   0.200   0.000    0.00
  15.300   12.96   15.40    4.19   0.000   0.200   0.000    0.00
  15.350   12.96   10.26    3.58   0.000   0.200   0.000    0.00
  15.400   12.79    3.24    3.59   0.000   0.200   0.000    0.00
  15.450   13.09    1.87    3.38   0.000   0.200   0.000    0.00
  15.500   13.10    4.38    2.94   0.000   0.200   0.000    0.00
  15.550   13.24    0.61    3.87   0.000   0.200   0.000    0.00
  15.600   12.92   -0.68    4.69   0.000   0.200   0.000    0.00
  15.650   12.99   -2.36    6.32   0.000   0.200   0.000    0.00
  15.700   14.12   -5.92    6.21   0.000   0.200   0.000    0.00
  15.750   15.34   -3.26    6.85   0.000   0.200   0.000    0.00
  15.800   14.61   -0.63    7.06   0.000   0.200   0.000    0.00
  15.850   14.84   -0.81    7.50   0.000   0.200   0.000    0.00
  15.900   16.52   -2.68    7.66   0.000   0.200   0.000    0.00
  15.950   16.81   -4.49    6.63   0.000   0.200   0.000    0.00
  16.000   16.33   -4.33    6.40   0.000   0.200   0.000    0.00
  16.050   16.45   -5.36    5.12   0.000   0.200   0.000    0.00
  16.100   16.78   -2.68    5.05   0.000   0.200   0.000    0.00
  16.150   15.69   -2.60    4.62   0.000   0.200   0.000    0.00
  16.200   15.73   -2.54    4.89   0.000   0.200   0.000    0.00
  16.250   15.69   -0.03    5.57   0.000   0.200   0.000    0.00
  16.300   16.67   -0.36    6.57   0.000   0.200   0.000    0.00
  16.350   16.25    0.21    5.98   0.000   0.200   0.000    0.00
  16.400   16.12    1.46    5.02   0.000   0.200   0.000    0.00
  16.450   15.56    2.90    4.66   0.000   0.200   0.000    0.00
  16.500   14.98    3.24    5.33   0.000   0.200   0.000    0.00
  16.550   14.45    0.97    5.38   0.000   0.200   0.000    0.00
  16.600   14.45   -0.31    4.95   0.000   0.200   0.000    0.00
  16.650   13.48   -4.47    6.67   0.000   0.200   0.000    0.00
  16.700   14.19  -10.58    6.60   0.000   0.200   0.000    0.00
  16.750   14.04   -9.10    7.42   0.000   0.200   0.000    0.00
  16.800   14.49   -6.62    7.16   0.000   0.200   0.000    0.00
  16.850   14.41   -5.02    6.14   0.000   0.200   0.000    0.00
  16.900   14.71   -2.13    5.39   0.000   0.200   0.000    0.00
  16.950   15.21   -3.83    5.61   0.000   0.200   0.000    0.00
  17.000   15.59   -4.16    5.70   0.000   0.200   0.000    0.00
  17.050   14.89   -1.15    4.51   0.000   0.200   0.000    0.00
  17.100   14.55   -5.09    3.63   0.000   0.200   0.000    0.00
  17.150   13.52   -5.63    2.19   0.000   0.200   0.000    0.00
  17.200   13.07  -10.12    0.90   0.000   0.200   0.000    0.00
  17.250   13.36   -7.57    0.13   0.000   0.200   0.000    0.00
  17.300   13.28   -2.65    0.81   0.000   0.200   0.000    0.00
  17.350   12.56   -1.79    1.68   0.000   0.200   0.000    0.00
  17.400   12.85   -3.17    1.54   0.000   0.200   0.000    0.00
  17.450   12.66    4.31    2.06   0.000   0.200   0.000    0.00
  17.500   11.26    1.49    1.98   0.000   0.200   0.000    0.00
  17.550   11.76    4.94    1.96   0.000   0.200   0.000    0.00
  17.600   12.26   -0.98    2.42   0.000   0.200   0.000    0.00
  17.650   11.32    1.76    2.25   0.000   0.200   0.000    0.00
  17.700   11.52    3.29    2.84   0.000   0.200   0.000    0.00
  17.750   13.29    0.27    2.60   0.000   0.200   0.000    0.00
  17.800   13.00    3.35    2.06   0.000   0.200   0.000    0.00
  17.850   12.75    7.80    2.23   0.000   0.200   0.000    0.00
  17.900   12.46    8.36    2.09   0.000   0.200   0.000    0.00
  17.950   13.24    4.23    1.80   0.000   0.200   0.000    0.00
  18.000   15.15   -0.51    1.89   0.000   0.200   0.000    0.00
  18.050   14.74    5.89    1.52   0.000   0.200   0.000    0.00
  18.100   13.70    7.23    0.15   0.000   0.200   0.000    0.00
  18.150   13.15    7.17    0.03   0.000   0.200   0.000    0.00
  18.200   14.59   10.46    0.33   0.000   0.200   0.000    0.00
  18.250   15.25    9.77   -0.44   0.000   0.200   0.000    0.00
  18.300   15.32    5.60   -0.89   0.000   0.200   0.000    0.00
  18.350   14.43    7.20   -0.65   0.000   0.200   0.000    0.00
  18.400   15.44    9.01   -1.61   0.000   0.200   0.000    0.00
  18.450   15.48    9.24   -1.64   0.000   0.200   0.000    0.00
  18.500   15.58    7.11   -1.29   0.000   0.200   0.000    0.00
  18.550   17.14    9.29   -1.00   0.000   0.200   0.000    0.00
  18.600   16.79    8.11    1.19   0.000   0.200   0.000    0.00
  18.650   15.32    9.51    1.59   0.000   0.200   0.000    0.00
  18.700   15.25   11.69    1.27   0.000   0.200   0.000    0.00
  18.750   14.95   14.65    2.36   0.000   0.200   0.000    0.00
  18.800   14.64   21.24    3.28   0.000   0.200   0.000    0.00
  18.850   15.27   20.87    1.97   0.000   0.200   0.000    0.00
  18.900   15.11   23.38    1.41   0.000   0.200   0.000    0.00
  18.950   13.85   17.97    1.12   0.000   0.200   0.000    0.00
  19.000   14.38   13.65    2.12   0.000   0.200   0.000    0.00
  19.050   14.70   12.78    2.99   0.000   0.200   0.000    0.00
  19.100   14.89   10.71    3.06   0.000   0.200   0.000    0.00
  19.150   14.93   10.81    2.16   0.000   0.200   0.000    0.00
  19.200   15.88    8.07    2.59   0.000   0.200   0.000    0.00
  19.250   15.72    7.29    1.62   0.000   0.200   0.000    0.00
  19.300   15.47    4.81    1.10   0.000   0.200   0.000    0.00
  19.350   14.97    3.53    1.02   0.000   0.200   0.000    0.00
  19.400   13.83    2.24    2.57   0.000   0.200   0.000    0.00
  19.450   13.64    0.68    2.04   0.000   0.200   0.000    0.00
  19.500   14.20    2.04    2.19   0.000   0.200   0.000    0.00
  19.550   14.67    1.32    2.90   0.000   0.200   0.000    0.00
  19.600   14.67    3.30    1.95   0.000   0.200   0.000    0.00
  19.650   14.72    8.65    2.80   0.000   0.200   0.000    0.00
  19.700   14.89    8.02    3.27   0.000   0.200   0.000    0.00
  19.750   16.21    6.01    3.68   0.000   0.200   0.000    0.00
  19.800   17.55    7.25    3.49   0.000   0.200   0.000    0.00
  19.850   17.61   11.82    1.55   0.000   0.200   0.000    0.00
  19.900   18.55   11.27    1.27   0.000   0.200   0.000    0.00
  19.950   17.91   12.73    2.62   0.000   0.200   0.000    0.00
  20.000   18.20   10.74    3.03   0.000   0.200   0.000    0.00
  20.050   17.65   11.57    2.21   0.000   0.200   0.000    0.00
  20.100   17.68   11.35    2.81   0.000   0.200   0.000    0.00
  20.150   17.40   12.89    2.19   0.000   0.200   0.000    0.00
  20.200   17.54   14.75    1.14   0.000   0.200   0.000    0.00
  20.250   17.19   10.70    1.83   0.000   0.200   0.000    0.00
  20.300   17.47    9.03    2.79   0.000   0.200   0.000    0.00
  20.350   18.80    5.41    3.21   0.000   0.200   0.000    0.00
  20.400   17.19    3.26    3.18   0.000   0.200   0.000    0.00
  20.450   16.81    4.79    3.11   0.000   0.200   0.000    0.00
  20.500   16.38    3.20    3.67   0.000   0.200   0.000    0.00
  20.550   15.85    9.74    2.00   0.000   0.200   0.000    0.00
  20.600   16.92    8.62    3.01   0.000   0.200   0.000    0.00
  20.650   15.65   11.18    2.41   0.000   0.200   0.000    0.00
  20.700   16.39   13.84    1.38   0.000   0.200   0.000    0.00
  20.750   17.06    8.64    1.31   0.000   0.200   0.000    0.00
  20.800   17.39   11.10    0.42   0.000   0.200   0.000    0.00
  20.850   17.53    9.33    0.06   0.000   0.200   0.000    0.00
  20.900   17.86   12.59    0.21   0.000   0.200   0.000    0.00
  20.950   16.98   14.12    0.71   0.000   0.200   0.000    0.00
  21.000   16.11   14.02    0.80   0.000   0.200   0.000    0.00
  21.050   16.39    8.75    2.05   0.000   0.200   0.000    0.00
  21.100   16.37   11.44    2.24   0.000   0.200   0.000    0.00
  21.150   16.00   12.81    1.90   0.000   0.200   0.000    0.00
  21.200   16.83   11.10    1.49   0.000   0.200   0.000    0.00
  21.250   17.14   13.95    1.20   0.000   0.200   0.000    0.00
  21.300   18.42   16.57    0.10   0.000   0.200   0.000    0.00
  21.350   18.55   12.34    0.51   0.000   0.200   0.000    0.00
  21.400   16.51   11.61    0.81   0.000   0.200   0.000    0.00
  21.450   16.92   12.56    0.83   0.000   0.200   0.000    0.00
  21.500   18.07   11.90    1.94   0.000   0.200   0.000    0.00
  21.550   19.65   13.19    1.67   0.000   0.200   0.000    0.00
  21.600   19.04   12.00    1.71   0.000   0.200   0.000    0.00
  21.650   19.16    9.91    2.70   0.000   0.200   0.000    0.00
  21.700   19.59   10.79    2.52   0.000   0.200   0.000    0.00
  21.750   19.68    8.80    1.30   0.000   0.200   0.000    0.00
  21.800   20.01   13.92    1.75   0.000   0.200   0.000    0.00
  21.850   19.17   10.87    1.68   0.000   0.200   0.000    0.00
  21.900   18.32   10.78    0.72   0.000   0.200   0.000    0.00
  21.950   18.18    8.27    1.05   0.000   0.200   0.000    0.00
  22.000   18.36    7.14    0.90   0.000   0.200   0.000    0.00
  22.050   18.61    9.37    1.34   0.000   0.200   0.000    0.00
  22.100   18.55    8.76    0.45   0.000   0.200   0.000    0.00
  22.150   18.23    9.62    1.44   0.000   0.200   0.000    0.00
  22.200   18.13   11.45    0.51   0.000   0.200   0.000    0.00
  22.250   18.59   11.95    1.23   0.000   0.200   0.000    0.00
  22.300   18.14   12.64    1.33   0.000   0.200   0.000    0.00
  22.350   17.02   11.55   -0.66   0.000   0.200   0.000    0.00
  22.400   16.70    7.20   -0.83   0.000   0.200   0.000    0.00
  22.450   17.01    5.44   -0.97   0.000   0.200   0.000    0.00
  22.500   17.10    8.11   -0.44   0.000   0.200   0.000    0.00
  22.550   17.78    5.08    0.71   0.000   0.200   0.000    0.00
  22.600   16.97    8.66    0.70   0.000   0.200   0.000    0.00
  22.650   16.90   10.31    0.26   0.000   0.200   0.000    0.00
  22.700   17.23    8.82    0.55   0.000   0.200   0.000    0.00