# ----- Rotor performance tables for the OpenFAST_BAR_00 wind turbine ----- 
# ------------ Written on Nov-13-19 using the ROSCO toolbox ------------ 

# Pitch angle vector - x axis (matrix columns) (deg)
-1.0   -0.75   -0.5   -0.25   0.0   0.25   0.5   0.75   1.0   1.25   1.5   1.75   2.0   2.25   2.5   2.75   3.0   3.25   3.5   3.75   4.0   4.25   4.5   4.75   5.0   5.25   5.5   5.75   6.0   6.25   6.5   6.75   7.0   7.25   7.5   7.75   8.0   8.25   8.5   8.75   9.0   9.25   9.5   9.75   10.0   10.25   10.5   10.75   11.0   11.25   11.5   11.75   12.0   12.25   12.5   12.75   13.0   13.25   13.5   13.75   14.0   14.25   14.5   14.75   15.0   15.25   15.5   15.75   16.0   16.25   16.5   16.75   17.0   17.25   17.5   17.75   18.0   18.25   18.5   18.75   19.0   19.25   19.5   19.75   20.0   20.25   20.5   20.75   21.0   21.25   21.5   21.75   22.0   22.25   22.5   22.75   23.0   23.25   23.5   23.75   24.0   24.25   24.5   24.75   
# TSR vector - y axis (matrix rows) (-)
3.0    3.25    3.5    3.75    4.0    4.25    4.5    4.75    5.0    5.25    5.5    5.75    6.0    6.25    6.5    6.75    7.0    7.25    7.5    7.75    8.0    8.25    8.5    8.75    9.0    9.25    9.5    9.75    10.0    10.25    10.5    10.75    11.0    11.25    11.5    11.75    12.0    12.25    12.5    12.75    13.0    13.25    13.5    13.75    14.0    14.25    14.5    14.75    
# Wind speed vector - z axis (m/s)
8.274    

# Power coefficient

0.097171   0.098562   0.099947   0.101323   0.102690   0.104048   0.105395   0.106729   0.108051   0.109357   0.110647   0.111919   0.113170   0.114400   0.115607   0.116787   0.117939   0.119061   0.120150   0.121204   0.122222   0.123200   0.124138   0.125032   0.125881   0.126683   0.127436   0.128138   0.128787   0.129383   0.129923   0.130405   0.130829   0.131194   0.131498   0.131741   0.131921   0.132040   0.132095   0.132088   0.132020   0.131889   0.131698   0.131446   0.131135   0.130765   0.130338   0.129855   0.129316   0.128723   0.128078   0.127380   0.126632   0.125835   0.124990   0.124098   0.123161   0.122179   0.121156   0.120090   0.118985   0.117841   0.116660   0.115442   0.114190   0.112904   0.111586   0.110237   0.108857   0.107449   0.106013   0.104551   0.103063   0.101551   0.100016   0.098459   0.096880   0.095281   0.093663   0.092026   0.090372   0.088700   0.087013   0.085309   0.083591   0.081859   0.080113   0.078353   0.076581   0.074797   0.073001   0.071193   0.069373   0.067543   0.065701   0.063849   0.061985   0.060110   0.058224   0.056327   0.054418   0.052497   0.050564   0.048619   
0.120721   0.122308   0.123877   0.125427   0.126955   0.128460   0.129938   0.131388   0.132807   0.134192   0.135540   0.136849   0.138116   0.139339   0.140513   0.141638   0.142710   0.143728   0.144688   0.145588   0.146427   0.147202   0.147911   0.148553   0.149126   0.149629   0.150059   0.150416   0.150700   0.150909   0.151044   0.151104   0.151089   0.151000   0.150838   0.150604   0.150298   0.149923   0.149478   0.148967   0.148389   0.147747   0.147042   0.146275   0.145449   0.144564   0.143622   0.142626   0.141575   0.140473   0.139321   0.138119   0.136871   0.135577   0.134239   0.132859   0.131437   0.129976   0.128477   0.126942   0.125371   0.123767   0.122130   0.120462   0.118764   0.117037   0.115283   0.113503   0.111698   0.109870   0.108019   0.106146   0.104252   0.102339   0.100406   0.098456   0.096489   0.094505   0.092505   0.090490   0.088461   0.086417   0.084360   0.082290   0.080207   0.078112   0.076004   0.073885   0.071753   0.069609   0.067453   0.065284   0.063103   0.060908   0.058700   0.056479   0.054244   0.051994   0.049729   0.047450   0.045155   0.042844   0.040518   0.038175   
0.146546   0.148258   0.149933   0.151567   0.153157   0.154699   0.156190   0.157626   0.159005   0.160323   0.161577   0.162765   0.163884   0.164930   0.165902   0.166798   0.167614   0.168350   0.169003   0.169572   0.170055   0.170451   0.170760   0.170981   0.171114   0.171159   0.171116   0.170987   0.170773   0.170474   0.170093   0.169631   0.169090   0.168471   0.167777   0.167009   0.166169   0.165260   0.164282   0.163238   0.162130   0.160960   0.159730   0.158442   0.157097   0.155697   0.154245   0.152741   0.151189   0.149589   0.147944   0.146254   0.144523   0.142750   0.140939   0.139090   0.137205   0.135285   0.133332   0.131348   0.129333   0.127289   0.125218   0.123120   0.120997   0.118851   0.116681   0.114490   0.112278   0.110046   0.107795   0.105526   0.103240   0.100937   0.098618   0.096284   0.093935   0.091572   0.089195   0.086804   0.084400   0.081982   0.079551   0.077107   0.074649   0.072177   0.069691   0.067191   0.064675   0.062144   0.059596   0.057032   0.054452   0.051853   0.049237   0.046603   0.043950   0.041278   0.038587   0.035876   0.033145   0.030395   0.027624   0.024834   
0.173947   0.175657   0.177300   0.178872   0.180370   0.181791   0.183131   0.184387   0.185557   0.186637   0.187625   0.188519   0.189317   0.190017   0.190618   0.191117   0.191515   0.191811   0.192005   0.192096   0.192086   0.191975   0.191766   0.191459   0.191057   0.190561   0.189974   0.189297   0.188534   0.187687   0.186757   0.185747   0.184660   0.183497   0.182261   0.180955   0.179580   0.178139   0.176634   0.175067   0.173440   0.171755   0.170015   0.168221   0.166375   0.164479   0.162536   0.160547   0.158513   0.156436   0.154319   0.152162   0.149968   0.147738   0.145473   0.143175   0.140845   0.138486   0.136097   0.133682   0.131240   0.128773   0.126283   0.123771   0.121236   0.118682   0.116107   0.113514   0.110903   0.108275   0.105630   0.102969   0.100292   0.097601   0.094894   0.092173   0.089437   0.086687   0.083921   0.081140   0.078343   0.075530   0.072701   0.069854   0.066989   0.064106   0.061204   0.058282   0.055339   0.052376   0.049391   0.046384   0.043355   0.040303   0.037228   0.034129   0.031007   0.027861   0.024692   0.021498   0.018281   0.015041   0.011777   0.008491   
0.201970   0.203513   0.204957   0.206301   0.207541   0.208673   0.209697   0.210609   0.211408   0.212092   0.212660   0.213111   0.213445   0.213662   0.213762   0.213747   0.213617   0.213375   0.213022   0.212562   0.211996   0.211328   0.210559   0.209693   0.208732   0.207679   0.206538   0.205309   0.203997   0.202604   0.201132   0.199584   0.197963   0.196270   0.194509   0.192682   0.190791   0.188838   0.186826   0.184756   0.182632   0.180454   0.178226   0.175948   0.173623   0.171253   0.168839   0.166383   0.163887   0.161352   0.158781   0.156174   0.153533   0.150861   0.148157   0.145425   0.142665   0.139878   0.137066   0.134231   0.131372   0.128491   0.125590   0.122668   0.119727   0.116768   0.113791   0.110797   0.107786   0.104759   0.101715   0.098655   0.095579   0.092486   0.089375   0.086248   0.083102   0.079937   0.076753   0.073548   0.070323   0.067076   0.063806   0.060513   0.057196   0.053854   0.050486   0.047093   0.043673   0.040226   0.036752   0.033249   0.029719   0.026161   0.022574   0.018959   0.015316   0.011645   0.007947   0.004222   0.000472   -0.003302   -0.007100   -0.010919   
0.229613   0.230831   0.231923   0.232887   0.233721   0.234424   0.234995   0.235433   0.235739   0.235913   0.235956   0.235870   0.235657   0.235320   0.234861   0.234284   0.233591   0.232785   0.231869   0.230848   0.229723   0.228498   0.227177   0.225761   0.224255   0.222661   0.220981   0.219220   0.217379   0.215462   0.213470   0.211407   0.209274   0.207076   0.204813   0.202489   0.200105   0.197663   0.195167   0.192617   0.190016   0.187366   0.184669   0.181926   0.179139   0.176310   0.173441   0.170533   0.167589   0.164609   0.161596   0.158550   0.155475   0.152370   0.149238   0.146080   0.142897   0.139689   0.136459   0.133207   0.129934   0.126641   0.123328   0.119997   0.116647   0.113278   0.109892   0.106487   0.103063   0.099621   0.096159   0.092677   0.089174   0.085650   0.082103   0.078533   0.074938   0.071318   0.067673   0.064000   0.060299   0.056569   0.052809   0.049019   0.045198   0.041344   0.037459   0.033541   0.029589   0.025605   0.021587   0.017535   0.013451   0.009334   0.005185   0.001004   -0.003206   -0.007446   -0.011712   -0.016005   -0.020322   -0.024661   -0.029020   -0.033398   
0.256030   0.256800   0.257421   0.257895   0.258222   0.258402   0.258437   0.258330   0.258084   0.257700   0.257183   0.256536   0.255762   0.254865   0.253849   0.252716   0.251470   0.250116   0.248655   0.247093   0.245432   0.243675   0.241825   0.239886   0.237860   0.235751   0.233561   0.231293   0.228950   0.226535   0.224049   0.221496   0.218878   0.216197   0.213456   0.210656   0.207801   0.204890   0.201928   0.198915   0.195854   0.192746   0.189593   0.186397   0.183160   0.179883   0.176569   0.173220   0.169836   0.166420   0.162973   0.159497   0.155993   0.152462   0.148905   0.145323   0.141719   0.138091   0.134442   0.130771   0.127080   0.123368   0.119635   0.115882   0.112108   0.108313   0.104495   0.100654   0.096790   0.092902   0.088988   0.085047   0.081079   0.077082   0.073055   0.068997   0.064908   0.060784   0.056626   0.052433   0.048204   0.043938   0.039634   0.035292   0.030912   0.026492   0.022034   0.017536   0.012999   0.008424   0.003811   -0.000839   -0.005525   -0.010245   -0.014998   -0.019782   -0.024595   -0.029436   -0.034300   -0.039188   -0.044095   -0.049020   -0.053959   -0.058910   
0.280630   0.280878   0.280967   0.280901   0.280682   0.280312   0.279797   0.279140   0.278343   0.277412   0.276350   0.275161   0.273849   0.272417   0.270870   0.269211   0.267443   0.265571   0.263597   0.261525   0.259359   0.257100   0.254753   0.252321   0.249805   0.247210   0.244537   0.241790   0.238971   0.236083   0.233127   0.230107   0.227024   0.223881   0.220679   0.217420   0.214107   0.210742   0.207326   0.203861   0.200349   0.196793   0.193194   0.189554   0.185875   0.182159   0.178408   0.174623   0.170806   0.166958   0.163081   0.159176   0.155244   0.151286   0.147303   0.143295   0.139264   0.135209   0.131131   0.127030   0.122905   0.118756   0.114582   0.110383   0.106157   0.101903   0.097621   0.093309   0.088966   0.084591   0.080182   0.075738   0.071258   0.066740   0.062183   0.057585   0.052947   0.048266   0.043541   0.038773   0.033960   0.029102   0.024199   0.019250   0.014256   0.009216   0.004131   -0.000997   -0.006168   -0.011381   -0.016632   -0.021922   -0.027247   -0.032605   -0.037993   -0.043410   -0.048853   -0.054319   -0.059804   -0.065306   -0.070821   -0.076346   -0.081878   -0.087411   
0.303125   0.302843   0.302402   0.301805   0.301057   0.300162   0.299123   0.297945   0.296632   0.295188   0.293617   0.291923   0.290109   0.288181   0.286141   0.283992   0.281739   0.279385   0.276932   0.274384   0.271745   0.269017   0.266203   0.263306   0.260329   0.257275   0.254145   0.250942   0.247669   0.244328   0.240921   0.237450   0.233917   0.230324   0.226673   0.222966   0.219206   0.215394   0.211533   0.207624   0.203670   0.199674   0.195635   0.191558   0.187443   0.183292   0.179107   0.174889   0.170639   0.166359   0.162049   0.157712   0.153346   0.148954   0.144536   0.140091   0.135619   0.131121   0.126594   0.122038   0.117453   0.112837   0.108190   0.103509   0.098793   0.094042   0.089254   0.084427   0.079559   0.074649   0.069696   0.064698   0.059653   0.054560   0.049418   0.044226   0.038983   0.033689   0.028342   0.022943   0.017491   0.011986   0.006429   0.000820   -0.004840   -0.010550   -0.016306   -0.022109   -0.027955   -0.033842   -0.039767   -0.045728   -0.051723   -0.057747   -0.063798   -0.069873   -0.075967   -0.082078   -0.088201   -0.094332   -0.100468   -0.106602   -0.112732   -0.118851   
0.323501   0.322725   0.321792   0.320707   0.319473   0.318096   0.316578   0.314925   0.313140   0.311228   0.309192   0.307036   0.304764   0.302379   0.299885   0.297286   0.294583   0.291782   0.288884   0.285894   0.282813   0.279645   0.276392   0.273056   0.269641   0.266149   0.262581   0.258940   0.255228   0.251448   0.247602   0.243691   0.239717   0.235684   0.231593   0.227447   0.223248   0.218997   0.214698   0.210352   0.205961   0.201528   0.197054   0.192541   0.187990   0.183403   0.178781   0.174127   0.169439   0.164721   0.159972   0.155192   0.150382   0.145541   0.140669   0.135765   0.130828   0.125856   0.120850   0.115806   0.110725   0.105605   0.100443   0.095239   0.089991   0.084696   0.079354   0.073962   0.068519   0.063022   0.057471   0.051863   0.046198   0.040475   0.034692   0.028850   0.022947   0.016983   0.010958   0.004873   -0.001272   -0.007475   -0.013736   -0.020052   -0.026421   -0.032841   -0.039308   -0.045821   -0.052376   -0.058970   -0.065600   -0.072263   -0.078954   -0.085669   -0.092406   -0.099159   -0.105923   -0.112695   -0.119469   -0.126239   -0.133001   -0.139750   -0.146478   -0.153181   
0.341884   0.340669   0.339299   0.337779   0.336114   0.334307   0.332362   0.330284   0.328077   0.325743   0.323287   0.320713   0.318024   0.315223   0.312314   0.309300   0.306183   0.302967   0.299656   0.296250   0.292754   0.289169   0.285498   0.281744   0.277908   0.273993   0.270001   0.265935   0.261796   0.257588   0.253311   0.248969   0.244564   0.240099   0.235574   0.230994   0.226360   0.221675   0.216941   0.212160   0.207333   0.202464   0.197553   0.192601   0.187611   0.182584   0.177521   0.172421   0.167287   0.162118   0.156913   0.151672   0.146394   0.141079   0.135724   0.130329   0.124893   0.119413   0.113889   0.108319   0.102701   0.097032   0.091312   0.085538   0.079707   0.073819   0.067871   0.061861   0.055787   0.049648   0.043443   0.037170   0.030829   0.024419   0.017939   0.011390   0.004772   -0.001915   -0.008671   -0.015492   -0.022377   -0.029325   -0.036331   -0.043394   -0.050510   -0.057676   -0.064890   -0.072147   -0.079443   -0.086775   -0.094138   -0.101527   -0.108940   -0.116369   -0.123810   -0.131258   -0.138707   -0.146151   -0.153585   -0.161001   -0.168393   -0.175755   -0.183079   -0.190358   
0.358447   0.356854   0.355108   0.353213   0.351173   0.348992   0.346673   0.344221   0.341639   0.338931   0.336099   0.333149   0.330082   0.326902   0.323612   0.320215   0.316715   0.313113   0.309412   0.305614   0.301723   0.297740   0.293669   0.289510   0.285267   0.280942   0.276537   0.272055   0.267498   0.262868   0.258169   0.253402   0.248570   0.243676   0.238722   0.233712   0.228646   0.223528   0.218360   0.213142   0.207878   0.202569   0.197216   0.191820   0.186383   0.180905   0.175386   0.169827   0.164226   0.158583   0.152897   0.147167   0.141391   0.135568   0.129696   0.123775   0.117801   0.111773   0.105690   0.099548   0.093346   0.087082   0.080754   0.074358   0.067893   0.061357   0.054747   0.048063   0.041304   0.034467   0.027551   0.020557   0.013484   0.006332   -0.000899   -0.008208   -0.015593   -0.023054   -0.030586   -0.038187   -0.045855   -0.053586   -0.061378   -0.069225   -0.077125   -0.085073   -0.093066   -0.101099   -0.109166   -0.117263   -0.125386   -0.133527   -0.141681   -0.149843   -0.158006   -0.166164   -0.174309   -0.182434   -0.190532   -0.198596   -0.206618   -0.214590   -0.222503   -0.230352   
0.373367   0.371463   0.369404   0.367194   0.364837   0.362335   0.359694   0.356916   0.354005   0.350965   0.347799   0.344510   0.341101   0.337575   0.333935   0.330184   0.326324   0.322359   0.318289   0.314118   0.309849   0.305483   0.301023   0.296471   0.291831   0.287105   0.282294   0.277403   0.272434   0.267389   0.262271   0.257083   0.251829   0.246510   0.241129   0.235689   0.230191   0.224638   0.219031   0.213373   0.207665   0.201908   0.196103   0.190251   0.184351   0.178405   0.172410   0.166366   0.160271   0.154125   0.147927   0.141674   0.135364   0.128997   0.122570   0.116080   0.109526   0.102906   0.096216   0.089455   0.082621   0.075710   0.068719   0.061648   0.054494   0.047255   0.039929   0.032516   0.025014   0.017423   0.009742   0.001972   -0.005888   -0.013835   -0.021870   -0.029987   -0.038187   -0.046464   -0.054816   -0.063239   -0.071730   -0.080284   -0.088898   -0.097567   -0.106286   -0.115050   -0.123854   -0.132692   -0.141559   -0.150448   -0.159353   -0.168268   -0.177184   -0.186096   -0.194994   -0.203872   -0.212721   -0.221532   -0.230298   -0.239010   -0.247659   -0.256236   -0.264733   -0.273141   
0.386815   0.384666   0.382355   0.379887   0.377267   0.374497   0.371581   0.368524   0.365327   0.361996   0.358532   0.354939   0.351219   0.347376   0.343412   0.339329   0.335130   0.330819   0.326397   0.321866   0.317231   0.312493   0.307655   0.302719   0.297690   0.292570   0.287361   0.282066   0.276690   0.271234   0.265702   0.260097   0.254421   0.248677   0.242867   0.236994   0.231059   0.225065   0.219013   0.212905   0.206741   0.200523   0.194250   0.187922   0.181538   0.175097   0.168598   0.162040   0.155420   0.148738   0.141992   0.135178   0.128297   0.121344   0.114318   0.107216   0.100036   0.092775   0.085430   0.077999   0.070479   0.062867   0.055161   0.047360   0.039461   0.031463   0.023366   0.015167   0.006868   -0.001533   -0.010034   -0.018634   -0.027332   -0.036124   -0.045008   -0.053980   -0.063036   -0.072173   -0.081386   -0.090672   -0.100025   -0.109441   -0.118915   -0.128441   -0.138013   -0.147625   -0.157271   -0.166943   -0.176636   -0.186342   -0.196052   -0.205760   -0.215455   -0.225130   -0.234775   -0.244382   -0.253941   -0.263443   -0.272878   -0.282237   -0.291511   -0.300689   -0.309761   -0.318719   
0.398937   0.396604   0.394102   0.391433   0.388603   0.385614   0.382471   0.379177   0.375735   0.372147   0.368418   0.364550   0.360546   0.356408   0.352139   0.347744   0.343223   0.338581   0.333820   0.328943   0.323952   0.318852   0.313646   0.308335   0.302924   0.297415   0.291813   0.286120   0.280340   0.274475   0.268530   0.262506   0.256406   0.250233   0.243989   0.237677   0.231297   0.224853   0.218345   0.211773   0.205137   0.198438   0.191674   0.184844   0.177947   0.170983   0.163948   0.156842   0.149662   0.142406   0.135073   0.127659   0.120162   0.112580   0.104910   0.097149   0.089294   0.081342   0.073290   0.065136   0.056876   0.048509   0.040033   0.031446   0.022747   0.013935   0.005009   -0.004030   -0.013183   -0.022446   -0.031820   -0.041300   -0.050883   -0.060565   -0.070343   -0.080213   -0.090170   -0.100209   -0.110325   -0.120514   -0.130769   -0.141084   -0.151454   -0.161871   -0.172329   -0.182821   -0.193338   -0.203873   -0.214417   -0.224962   -0.235498   -0.246015   -0.256504   -0.266954   -0.277357   -0.287701   -0.297975   -0.308171   -0.318277   -0.328282   -0.338177   -0.347950   -0.357592   -0.367093   
0.409855   0.407403   0.404767   0.401953   0.398963   0.395802   0.392473   0.388980   0.385325   0.381513   0.377546   0.373427   0.369161   0.364749   0.360197   0.355505   0.350679   0.345720   0.340633   0.335421   0.330086   0.324633   0.319065   0.313385   0.307597   0.301706   0.295713   0.289623   0.283440   0.277166   0.270804   0.264358   0.257830   0.251222   0.244537   0.237776   0.230941   0.224032   0.217049   0.209993   0.202862   0.195656   0.188374   0.181013   0.173573   0.166051   0.158446   0.150756   0.142977   0.135109   0.127147   0.119090   0.110934   0.102676   0.094314   0.085844   0.077263   0.068568   0.059756   0.050824   0.041770   0.032593   0.023290   0.013862   0.004306   -0.005376   -0.015186   -0.025120   -0.035177   -0.045355   -0.055648   -0.066054   -0.076569   -0.087187   -0.097905   -0.108717   -0.119617   -0.130601   -0.141661   -0.152793   -0.163988   -0.175240   -0.186542   -0.197885   -0.209262   -0.220663   -0.232080   -0.243503   -0.254922   -0.266327   -0.277706   -0.289049   -0.300346   -0.311584   -0.322753   -0.333840   -0.344836   -0.355728   -0.366505   -0.377156   -0.387669   -0.398034   -0.408241   -0.418276   
0.419670   0.417159   0.414446   0.411536   0.408433   0.405141   0.401664   0.398006   0.394170   0.390162   0.385984   0.381640   0.377134   0.372470   0.367651   0.362680   0.357562   0.352300   0.346898   0.341360   0.335690   0.329891   0.323967   0.317923   0.311763   0.305490   0.299109   0.292623   0.286035   0.279349   0.272567   0.265693   0.258729   0.251677   0.244539   0.237316   0.230007   0.222614   0.215135   0.207570   0.199917   0.192176   0.184344   0.176421   0.168403   0.160290   0.152078   0.143764   0.135347   0.126824   0.118190   0.109444   0.100582   0.091601   0.082496   0.073266   0.063906   0.054414   0.044786   0.035022   0.025118   0.015075   0.004890   -0.005436   -0.015904   -0.026512   -0.037257   -0.048138   -0.059150   -0.070288   -0.081550   -0.092929   -0.104422   -0.116022   -0.127724   -0.139522   -0.151409   -0.163379   -0.175425   -0.187539   -0.199713   -0.211939   -0.224208   -0.236511   -0.248838   -0.261179   -0.273522   -0.285858   -0.298174   -0.310458   -0.322699   -0.334884   -0.347001   -0.359038   -0.370982   -0.382820   -0.394541   -0.406133   -0.417582   -0.428879   -0.440010   -0.450965   -0.461730   -0.472294   
0.428450   0.425939   0.423202   0.420245   0.417073   0.413691   0.410103   0.406315   0.402331   0.398155   0.393793   0.389247   0.384523   0.379624   0.374555   0.369321   0.363924   0.358371   0.352664   0.346809   0.340810   0.334671   0.328398   0.321994   0.315463   0.308811   0.302040   0.295156   0.288160   0.281056   0.273848   0.266538   0.259127   0.251618   0.244011   0.236306   0.228503   0.220602   0.212601   0.204500   0.196296   0.187989   0.179576   0.171056   0.162426   0.153682   0.144824   0.135847   0.126749   0.117526   0.108175   0.098693   0.089076   0.079320   0.069421   0.059377   0.049184   0.038840   0.028342   0.017689   0.006880   -0.004086   -0.015209   -0.026488   -0.037922   -0.049507   -0.061240   -0.073116   -0.085130   -0.097279   -0.109556   -0.121956   -0.134473   -0.147100   -0.159832   -0.172660   -0.185578   -0.198577   -0.211649   -0.224786   -0.237977   -0.251213   -0.264485   -0.277780   -0.291088   -0.304396   -0.317692   -0.330964   -0.344199   -0.357382   -0.370501   -0.383543   -0.396494   -0.409339   -0.422067   -0.434663   -0.447116   -0.459411   -0.471537   -0.483481   -0.495230   -0.506771   -0.518091   -0.529178   
0.436237   0.433786   0.431080   0.428126   0.424930   0.421500   0.417840   0.413956   0.409854   0.405539   0.401017   0.396292   0.391370   0.386255   0.380953   0.375468   0.369806   0.363972   0.357970   0.351807   0.345486   0.339014   0.332394   0.325632   0.318733   0.311700   0.304538   0.297251   0.289841   0.282313   0.274669   0.266910   0.259039   0.251055   0.242959   0.234750   0.226429   0.217994   0.209444   0.200777   0.191992   0.183086   0.174058   0.164904   0.155623   0.146211   0.136664   0.126981   0.117157   0.107189   0.097073   0.086805   0.076382   0.065799   0.055053   0.044141   0.033060   0.021809   0.010385   -0.001212   -0.012983   -0.024927   -0.037044   -0.049330   -0.061781   -0.074394   -0.087163   -0.100084   -0.113151   -0.126357   -0.139698   -0.153166   -0.166755   -0.180457   -0.194263   -0.208167   -0.222158   -0.236229   -0.250369   -0.264567   -0.278814   -0.293097   -0.307404   -0.321724   -0.336042   -0.350346   -0.364621   -0.378853   -0.393026   -0.407128   -0.421142   -0.435055   -0.448852   -0.462517   -0.476038   -0.489401   -0.502591   -0.515595   -0.528402   -0.540995   -0.553362   -0.565488   -0.577360   -0.588966   
0.443056   0.440727   0.438109   0.435210   0.432038   0.428601   0.424907   0.420962   0.416773   0.412348   0.407691   0.402810   0.397709   0.392397   0.386877   0.381157   0.375242   0.369138   0.362851   0.356387   0.349751   0.342949   0.335986   0.328867   0.321598   0.314183   0.306625   0.298929   0.291099   0.283136   0.275042   0.266820   0.258469   0.249990   0.241383   0.232647   0.223782   0.214785   0.205656   0.196392   0.186992   0.177453   0.167772   0.157948   0.147976   0.137853   0.127577   0.117142   0.106546   0.095785   0.084854   0.073750   0.062468   0.051005   0.039357   0.027522   0.015498   0.003284   -0.009122   -0.021720   -0.034508   -0.047485   -0.060648   -0.073991   -0.087511   -0.101202   -0.115058   -0.129074   -0.143242   -0.157557   -0.172010   -0.186595   -0.201303   -0.216125   -0.231053   -0.246077   -0.261186   -0.276371   -0.291619   -0.306919   -0.322259   -0.337624   -0.353002   -0.368378   -0.383737   -0.399063   -0.414341   -0.429555   -0.444689   -0.459727   -0.474654   -0.489452   -0.504108   -0.518605   -0.532930   -0.547068   -0.561004   -0.574726   -0.588217   -0.601462   -0.614447   -0.627158   -0.639580   -0.651702   
0.448912   0.446775   0.444305   0.441515   0.438416   0.435017   0.431328   0.427358   0.423115   0.418607   0.413842   0.408827   0.403570   0.398078   0.392358   0.386416   0.380261   0.373898   0.367334   0.360576   0.353629   0.346501   0.339197   0.331721   0.324080   0.316278   0.308320   0.300207   0.291945   0.283534   0.274975   0.266271   0.257421   0.248424   0.239282   0.229992   0.220554   0.210966   0.201226   0.191333   0.181283   0.171074   0.160704   0.150168   0.139464   0.128589   0.117537   0.106305   0.094889   0.083285   0.071489   0.059496   0.047302   0.034904   0.022299   0.009487   -0.003536   -0.016770   -0.030214   -0.043868   -0.057728   -0.071790   -0.086051   -0.100504   -0.115143   -0.129963   -0.144957   -0.160118   -0.175438   -0.190910   -0.206526   -0.222276   -0.238152   -0.254142   -0.270238   -0.286428   -0.302699   -0.319041   -0.335439   -0.351881   -0.368351   -0.384834   -0.401316   -0.417779   -0.434207   -0.450583   -0.466889   -0.483107   -0.499222   -0.515216   -0.531071   -0.546771   -0.562299   -0.577642   -0.592783   -0.607707   -0.622400   -0.636845   -0.651026   -0.664927   -0.678533   -0.691829   -0.704802   -0.717439   
0.453795   0.451923   0.449668   0.447047   0.444073   0.440759   0.437118   0.433160   0.428897   0.424337   0.419491   0.414367   0.408975   0.403322   0.397417   0.391269   0.384885   0.378273   0.371441   0.364395   0.357143   0.349691   0.342046   0.334212   0.326196   0.318002   0.309634   0.301094   0.292386   0.283511   0.274469   0.265262   0.255890   0.246352   0.236648   0.226777   0.216737   0.206526   0.196143   0.185585   0.174850   0.163934   0.152834   0.141546   0.130068   0.118394   0.106521   0.094444   0.082160   0.069662   0.056947   0.044012   0.030851   0.017464   0.003848   -0.009999   -0.024077   -0.038386   -0.052924   -0.067687   -0.082672   -0.097872   -0.113282   -0.128896   -0.144707   -0.160708   -0.176892   -0.193250   -0.209773   -0.226454   -0.243282   -0.260248   -0.277340   -0.294547   -0.311858   -0.329259   -0.346737   -0.364279   -0.381868   -0.399490   -0.417128   -0.434765   -0.452383   -0.469965   -0.487491   -0.504942   -0.522300   -0.539547   -0.556663   -0.573631   -0.590432   -0.607050   -0.623468   -0.639671   -0.655642   -0.671366   -0.686825   -0.702001   -0.716878   -0.731440   -0.745671   -0.759555   -0.773082   -0.786239   
0.457675   0.456154   0.454188   0.451800   0.449009   0.445832   0.442284   0.438380   0.434132   0.429553   0.424654   0.419446   0.413940   0.408147   0.402075   0.395734   0.389135   0.382284   0.375191   0.367863   0.360309   0.352535   0.344548   0.336354   0.327957   0.319363   0.310574   0.301594   0.292424   0.283066   0.273521   0.263789   0.253871   0.243766   0.233473   0.222992   0.212319   0.201454   0.190394   0.179136   0.167677   0.156014   0.144144   0.132062   0.119765   0.107248   0.094506   0.081535   0.068330   0.054886   0.041200   0.027268   0.013087   -0.001345   -0.016030   -0.030967   -0.046156   -0.061596   -0.077281   -0.093207   -0.109369   -0.125760   -0.142373   -0.159201   -0.176236   -0.193471   -0.210897   -0.228504   -0.246284   -0.264225   -0.282317   -0.300548   -0.318907   -0.337379   -0.355952   -0.374611   -0.393341   -0.412124   -0.430946   -0.449787   -0.468630   -0.487456   -0.506244   -0.524974   -0.543627   -0.562181   -0.580616   -0.598914   -0.617053   -0.635015   -0.652782   -0.670337   -0.687663   -0.704743   -0.721559   -0.738094   -0.754329   -0.770247   -0.785828   -0.801058   -0.815919   -0.830399   -0.844486   -0.858172   
0.460503   0.459431   0.457841   0.455761   0.453218   0.450234   0.446829   0.443021   0.438827   0.434263   0.429341   0.424076   0.418481   0.412567   0.406345   0.399828   0.393024   0.385945   0.378599   0.370995   0.363141   0.355045   0.346714   0.338154   0.329369   0.320363   0.311141   0.301704   0.292055   0.282195   0.272125   0.261846   0.251357   0.240659   0.229749   0.218626   0.207289   0.195736   0.183963   0.171968   0.159748   0.147299   0.134616   0.121696   0.108534   0.095126   0.081466   0.067550   0.053373   0.038931   0.024220   0.009236   -0.006021   -0.021554   -0.037363   -0.053447   -0.069803   -0.086427   -0.103313   -0.120456   -0.137848   -0.155483   -0.173353   -0.191449   -0.209763   -0.228286   -0.247008   -0.265918   -0.285007   -0.304261   -0.323669   -0.343217   -0.362892   -0.382679   -0.402562   -0.422525   -0.442550   -0.462619   -0.482714   -0.502814   -0.522899   -0.542948   -0.562939   -0.582849   -0.602657   -0.622341   -0.641879   -0.661251   -0.680436   -0.699415   -0.718170   -0.736682   -0.754935   -0.772909   -0.790586   -0.807946   -0.824971   -0.841639   -0.857935   -0.873841   -0.889343   -0.904428   -0.919087   -0.933314   