--------- BEAMDYN with OpenFAST INPUT FILE -------------------------------------------
Generated with AeroElasticSE FAST driver
---------------------- SIMULATION CONTROL --------------------------------------
True                   Echo        - Echo input data to "<RootName>.ech" (flag)
True                   QuasiStaticInit - Use quasistatic pre-conditioning with centripetal accelerations in initialization (flag) [dynamic solve only]
0                      rhoinf      - Numerical damping parameter for generalized-alpha integrator
2                      quadrature  - Quadrature method: 1=Gaussian; 2=Trapezoidal (switch)
"DEFAULT"              refine      - Refinement factor for trapezoidal quadrature (-). DEFAULT = 1 [used only when quadrature=2]
"DEFAULT"              n_fact      - Factorization frequency (-). DEFAULT = 5
"DEFAULT"                DTBeam      - Time step size (s).
"DEFAULT"                load_retries - Number of factored load retries before quitting the aimulation
"DEFAULT"                NRMax       - Max number of iterations in Newton-Ralphson algorithm (-). DEFAULT = 10
"DEFAULT"                stop_tol    - Tolerance for stopping criterion (-)
"DEFAULT"              tngt_stf_fd - Flag to use finite differenced tangent stiffness matrix (-)
"DEFAULT"              tngt_stf_comp - Flag to compare analytical finite differenced tangent stiffness matrix  (-)
"DEFAULT"                tngt_stf_pert - perturbation size for finite differencing (-)
"DEFAULT"                tngt_stf_difftol - Maximum allowable relative difference between analytical and fd tangent stiffness (-)
True                   RotStates   - Orient states in the rotating frame during linearization? (flag) [used only when linearizing]
---------------------- GEOMETRY PARAMETER --------------------------------------
1                      member_total - Total number of members (-)
50                     kp_total    - Total number of key points (-) [must be at least 3]
1 50                               - Member number; Number of key points in this member
        kp_xr                 kp_yr                 kp_zr             initial_twist    
         (m)                   (m)                   (m)                  (deg)        
 0.00000000000000e+00  0.00000000000000e+00  0.00000000000000e+00  2.00020000000000e+01
 8.63467000000000e-03  0.00000000000000e+00  2.04074000000000e+00  1.92272000000000e+01
 2.15019000000000e-02  0.00000000000000e+00  4.08148000000000e+00  1.84256000000000e+01
 4.37747000000000e-02  0.00000000000000e+00  6.12222000000000e+00  1.75644000000000e+01
 7.27647000000000e-02  0.00000000000000e+00  8.16296000000000e+00  1.66556000000000e+01
 1.05859000000000e-01  0.00000000000000e+00  1.02037000000000e+01  1.57176000000000e+01
 1.44569000000000e-01  0.00000000000000e+00  1.22444000000000e+01  1.47171000000000e+01
 1.83806000000000e-01  0.00000000000000e+00  1.42852000000000e+01  1.36454000000000e+01
 2.23391000000000e-01  0.00000000000000e+00  1.63259000000000e+01  1.23644000000000e+01
 2.60385000000000e-01  0.00000000000000e+00  1.83667000000000e+01  1.08890000000000e+01
 2.95273000000000e-01  0.00000000000000e+00  2.04074000000000e+01  9.25591000000000e+00
 3.21803000000000e-01  0.00000000000000e+00  2.24481000000000e+01  7.74687000000000e+00
 3.44403000000000e-01  0.00000000000000e+00  2.44889000000000e+01  6.36938000000000e+00
 3.54565000000000e-01  0.00000000000000e+00  2.65296000000000e+01  5.52798000000000e+00
 3.56325000000000e-01  0.00000000000000e+00  2.85704000000000e+01  5.06849000000000e+00
 3.49085000000000e-01  0.00000000000000e+00  3.06111000000000e+01  5.01819000000000e+00
 3.32060000000000e-01  0.00000000000000e+00  3.26518000000000e+01  5.00961000000000e+00
 3.11591000000000e-01  0.00000000000000e+00  3.46926000000000e+01  5.01197000000000e+00
 2.83390000000000e-01  0.00000000000000e+00  3.67333000000000e+01  5.01475000000000e+00
 2.53147000000000e-01  0.00000000000000e+00  3.87741000000000e+01  5.01718000000000e+00
 2.20011000000000e-01  0.00000000000000e+00  4.08148000000000e+01  5.01911000000000e+00
 1.80702000000000e-01  0.00000000000000e+00  4.28555000000000e+01  4.99234000000000e+00
 1.38387000000000e-01  0.00000000000000e+00  4.48963000000000e+01  4.94865000000000e+00
 7.77649000000000e-02  0.00000000000000e+00  4.69370000000000e+01  4.73732000000000e+00
 1.17613000000000e-02  0.00000000000000e+00  4.89778000000000e+01  4.48944000000000e+00
-6.44672000000000e-02  0.00000000000000e+00  5.10185000000000e+01  4.17211000000000e+00
-1.46733000000000e-01  0.00000000000000e+00  5.30592000000000e+01  3.84530000000000e+00
-2.32177000000000e-01  0.00000000000000e+00  5.51000000000000e+01  3.51350000000000e+00
-3.25989000000000e-01  0.00000000000000e+00  5.71407000000000e+01  3.24732000000000e+00
-4.25425000000000e-01  0.00000000000000e+00  5.91815000000000e+01  2.99544000000000e+00
-5.38845000000000e-01  0.00000000000000e+00  6.12222000000000e+01  2.77495000000000e+00
-6.61935000000000e-01  0.00000000000000e+00  6.32629000000000e+01  2.55522000000000e+00
-7.91852000000000e-01  0.00000000000000e+00  6.53037000000000e+01  2.33600000000000e+00
-9.31171000000000e-01  0.00000000000000e+00  6.73444000000000e+01  2.08867000000000e+00
-1.07298000000000e+00  0.00000000000000e+00  6.93852000000000e+01  1.82382000000000e+00
-1.22016000000000e+00  0.00000000000000e+00  7.14259000000000e+01  1.50429000000000e+00
-1.37464000000000e+00  0.00000000000000e+00  7.34666000000000e+01  1.10623000000000e+00
-1.53592000000000e+00  0.00000000000000e+00  7.55074000000000e+01  6.34897000000000e-01
-1.70837000000000e+00  0.00000000000000e+00  7.75481000000000e+01  8.19260000000000e-02
-1.88448000000000e+00  0.00000000000000e+00  7.95889000000000e+01 -4.88564000000000e-01
-2.06891000000000e+00  0.00000000000000e+00  8.16296000000000e+01 -1.06225000000000e+00
-2.25762000000000e+00  0.00000000000000e+00  8.36703000000000e+01 -1.59575000000000e+00
-2.45156000000000e+00  0.00000000000000e+00  8.57111000000000e+01 -2.07978000000000e+00
-2.65327000000000e+00  0.00000000000000e+00  8.77518000000000e+01 -2.51107000000000e+00
-2.85830000000000e+00  0.00000000000000e+00  8.97926000000000e+01 -2.92361000000000e+00
-3.07501000000000e+00  0.00000000000000e+00  9.18333000000000e+01 -3.30948000000000e+00
-3.29647000000000e+00  0.00000000000000e+00  9.38740000000000e+01 -3.68286000000000e+00
-3.52570000000000e+00  0.00000000000000e+00  9.59148000000000e+01 -4.03581000000000e+00
-3.76140000000000e+00  0.00000000000000e+00  9.79555000000000e+01 -4.36309000000000e+00
-4.00000000000000e+00  0.00000000000000e+00  9.99963000000000e+01 -4.67883000000000e+00
---------------------- MESH PARAMETER ------------------------------------------
5                      order_elem  - Order of interpolation (basis) function (-)
---------------------- MATERIAL PARAMETER --------------------------------------
"OpenFAST_BAR_00_BeamDyn_Blade.dat" BldFile     - Name of file containing properties for blade (quoted string)
---------------------- PITCH ACTUATOR PARAMETERS -------------------------------
False                  UsePitchAct - Whether a pitch actuator should be used (flag)
200.0                  PitchJ      - Pitch actuator inertia (kg-m^2) [used only when UsePitchAct is true]
20000000.0             PitchK      - Pitch actuator stiffness (kg-m^2/s^2) [used only when UsePitchAct is true]
500000.0               PitchC      - Pitch actuator damping (kg-m^2/s) [used only when UsePitchAct is true]
---------------------- OUTPUTS -------------------------------------------------
True                   SumPrint    - Print summary data to "<RootName>.sum" (flag)
"ES10.3E2"             OutFmt      - Format used for text tabular output, excluding the time channel.
9                      NNodeOuts   - Number of nodes to output to file [0 - 9] (-)
3, 6, 9, 12, 15, 18, 21, 24, 27     OutNd          - Nodes whose values will be output  (-) OutNd       - Nodes whose values will be output  (-) OutNd       - Nodes whose values will be output  (-) OutNd       - Nodes whose values will be output  (-) OutNd       - Nodes whose values will be output  (-) OutNd       - Nodes whose values will be output  (-) OutNd       - Nodes whose values will be output  (-) OutNd       - Nodes whose values will be output  (-)
          OutList            - The next line(s) contains a list of output parameters. See OutListParameters.xlsx for a listing of available output channels, (-)
"N1Fxl"
"N1Fyl"
"N1Fzl"
"N1Mxl"
"N1Myl"
"N1Mzl"
"N1RDxr"
"N1RDyr"
"N1RDzr"
"N1TDxr"
"N1TDyr"
"N1TDzr"
"N2Fxl"
"N2Fyl"
"N2Fzl"
"N2Mxl"
"N2Myl"
"N2Mzl"
"N2RDxr"
"N2RDyr"
"N2RDzr"
"N2TDxr"
"N2TDyr"
"N2TDzr"
"N3Fxl"
"N3Fyl"
"N3Fzl"
"N3Mxl"
"N3Myl"
"N3Mzl"
"N3RDxr"
"N3RDyr"
"N3RDzr"
"N3TDxr"
"N3TDyr"
"N3TDzr"
"N4Fxl"
"N4Fyl"
"N4Fzl"
"N4Mxl"
"N4Myl"
"N4Mzl"
"N4RDxr"
"N4RDyr"
"N4RDzr"
"N4TDxr"
"N4TDyr"
"N4TDzr"
"N5Fxl"
"N5Fyl"
"N5Fzl"
"N5Mxl"
"N5Myl"
"N5Mzl"
"N5RDxr"
"N5RDyr"
"N5RDzr"
"N5TDxr"
"N5TDyr"
"N5TDzr"
"N6Fxl"
"N6Fyl"
"N6Fzl"
"N6Mxl"
"N6Myl"
"N6Mzl"
"N6RDxr"
"N6RDyr"
"N6RDzr"
"N6TDxr"
"N6TDyr"
"N6TDzr"
"N7Fxl"
"N7Fyl"
"N7Fzl"
"N7Mxl"
"N7Myl"
"N7Mzl"
"N7RDxr"
"N7RDyr"
"N7RDzr"
"N7TDxr"
"N7TDyr"
"N7TDzr"
"N8Fxl"
"N8Fyl"
"N8Fzl"
"N8Mxl"
"N8Myl"
"N8Mzl"
"N8RDxr"
"N8RDyr"
"N8RDzr"
"N8TDxr"
"N8TDyr"
"N8TDzr"
"N9Fxl"
"N9Fyl"
"N9Fzl"
"N9Mxl"
"N9Myl"
"N9Mzl"
"N9RDxr"
"N9RDyr"
"N9RDzr"
"N9TDxr"
"N9TDyr"
"N9TDzr"
"RootFxr"
"RootFyr"
"RootFzr"
"RootMxr"
"RootMyr"
"RootMzr"
"TipRDxr"
"TipRDyr"
"TipRDzr"
"TipTDxr"
"TipTDyr"
"TipTDzr"
END of input file (the word "END" must appear in the first 3 columns of this last OutList line)---------------------------------------------------------------------------------------