--------------TurbSim v2.00.* User Time Series Input File-----------------------
Time series input from Y:/wind/windweb/MetData/135mData/M4Twr/20Hz/mat/2014/01/13/01134_16_40_00_013.mat. Using rotated series
--------------------------------------------------------------------------------
          3  nComp    - Number of velocity components in the file (1=u component only; 2=u & v components; 3=u,v,w) [if < 3 other components will be generated using values from input file]
          5  nPoints  - Number of time series points contained in this file (-)
          4  RefPtID  - Index of the reference point (1-nPoints)
Pointyi     Pointzi    ! listed in order of increasing height
  (m)         (m)
    0.00000    15.00000
    0.00000    30.00000
    0.00000    50.00000
    0.00000    76.00000
    0.00000   102.00000  !    0.00000   131.00000
--------Time Series-------------------------------------------------------------
 Elapsed Time     Point01u_015m Point01v_015m Point01w_015m Point02u_030m Point02v_030m Point02w_030m Point03u_050m Point03v_050m Point03w_050m Point04u_076m Point04v_076m Point04w_076m Point05u_100m Point05v_100m Point05w_100m 
          (s)         (m/s)         (m/s)         (m/s)         (m/s)         (m/s)         (m/s)         (m/s)         (m/s)         (m/s)         (m/s)         (m/s)         (m/s)         (m/s)         (m/s)         (m/s)     
       0.0000       10.0239       -6.5673        0.1700       10.7104       -4.3265       -0.2657        7.5121       -5.5683        0.7229        8.5538        1.8554        2.7886        7.0625       -2.1336       -0.2311     
       0.0500        9.8543       -6.6871        0.2014       10.5539       -4.5656       -0.1635        8.2209       -5.4902        0.7691        8.9743        2.5509        3.3407        7.7085       -2.3617       -0.6188     
       0.1000        9.6866       -6.9837       -0.0274       10.6105       -4.1738       -0.1907        8.3543       -5.4594        0.8359        8.6827        2.7908        3.1656        7.8472       -2.9253       -0.6418     
       0.1500        9.7324       -7.0552       -0.0051       10.6691       -4.4155       -0.0675        8.1870       -5.3004        0.9976        8.4674        2.6578        2.9444        7.7456       -2.1933       -0.0762     
       0.2000       10.6893       -6.8507       -0.9577       10.3897       -4.9771        0.2487        8.0996       -5.2680        1.9644        8.9458        3.0094        1.8673        7.6701       -2.2987        0.2604     
       0.2500        9.9231       -7.3007        0.7656       10.4993       -4.6568        0.1041        7.3927       -5.6227        1.8984        8.9012        2.8845        1.6848        7.3964       -2.1423        0.5068     
       0.3000       10.6087       -7.4602        1.1109       10.6404       -4.6216        0.4016        7.8551       -5.8079        1.7017        7.8978        2.7014        1.8440        7.5993       -2.1448        0.7674     
       0.3500       10.7004       -6.5530        1.5361       10.6060       -5.0307        0.2697        8.0539       -5.2520        1.5816        7.5469        2.3478        2.0364        7.5398       -2.6146        1.1950     
       0.4000       10.6239       -6.5870        0.9715       10.2804       -5.5762        0.2131        9.0905       -5.1252        1.2239        7.1627        2.1428        2.4274        7.6807       -2.6597        1.6527     
       0.4500       10.3173       -6.9557        0.7657        9.7826       -5.9725        0.4581        9.4540       -4.3138        1.3725        7.9526        2.5129        2.2073        7.9318       -2.2922        1.9459     
       0.5000       10.1416       -7.2209        0.7567       10.0303       -4.9716        0.6309        9.8407       -3.7520        0.7614        8.4600        2.4350        0.6511        7.1259       -2.6972        1.2240     
       0.5500       10.5047       -6.7512        0.6150        9.2657       -4.9317        0.3516       10.2811       -3.3267       -0.2976        9.9670        1.6305        1.0282        8.6704       -2.5493        1.6831     
       0.6000       10.7474       -6.2916        1.0679        9.8545       -4.6793        0.9724        9.2865       -3.1312       -0.3782        8.8298        1.9777        2.6725        8.5316       -2.3025        0.8950     
       0.6500       10.0867       -7.4206        0.5036        9.7205       -4.9432        1.1458        9.9069       -2.8483        0.4944        7.9273        2.2319        2.3362        8.2093       -3.3990        0.9988     
       0.7000        9.8459       -7.4542       -1.2710        8.9698       -4.7850        1.0775        9.6954       -2.6462       -0.0771        8.6383        2.1842        2.0920        8.2936       -3.7892        1.0731     
       0.7500        9.6427       -7.2455       -1.4315        9.3917       -4.6785        1.1891        9.1673       -2.7193        0.3366        8.9427        2.3911        1.6469        8.2266       -3.3263        0.7393     
       0.8000        9.5695       -7.7153       -0.7343        9.5739       -4.4328        1.1584        9.0573       -2.6535        0.1908        8.3292        2.2472        2.0362        7.8194       -3.7072        0.5483     
       0.8500       10.2921       -6.9918       -0.9979        9.6578       -4.3620        1.2127        8.9479       -3.1538        0.7260        8.3102        2.6701        1.7449        7.8589       -3.7135        1.0110     
       0.9000        9.8191       -6.6210        0.3998        9.8743       -4.2941        1.0936        9.6018       -2.5313        1.0496        8.2451        2.9574        2.1521        8.2243       -3.4065        0.9394     
       0.9500       10.0563       -6.9999        0.2417       10.3157       -4.2559        1.1260        8.5548       -1.6788        0.2954        9.0907        3.7919        2.0049        7.9246       -3.4823        1.1144     
       1.0000        9.2220       -5.9308        0.8000        9.9854       -4.1755        1.2094        8.5202       -2.2213        0.1535        9.0511        3.9090        2.2632        7.8068       -3.8460        1.2086     
       1.0500       10.0784       -5.5374        2.1954        9.5217       -4.6836        0.8753        7.3394       -3.3442        0.5039        9.6810        2.8990        2.8360        7.9015       -3.3869        0.9430     
       1.1000        9.5813       -5.8415        2.4204       10.2011       -4.7455        0.9099        8.3667       -3.6501        1.0368        9.2322        2.6666        3.0034        8.0554       -4.2803        0.4702     
       1.1500       10.1393       -5.7391        1.2873        9.5294       -5.2682        0.6955        8.8540       -3.1497        1.1417        9.4119        3.0706        2.5219        7.4228       -4.3461        0.8886     
       1.2000       10.3018       -6.1910        0.7048        9.3079       -5.5758        0.5641        8.2826       -3.4260       -0.1190        8.6405        4.2058        1.3511        7.4680       -3.3188        1.0912     
       1.2500       10.4492       -6.5951        1.0127        9.5492       -6.0838        0.6965        9.3215       -3.4758        1.0654        8.4973        4.2717        1.8545        6.9824       -3.1717        1.1065     
       1.3000        9.7664       -7.2437        0.7676        9.8434       -6.0361        1.7628        9.8312       -4.2205        1.2115       10.6266        4.3021        2.0330        6.5258       -3.8663        0.4524     
       1.3500        8.8919       -7.6760       -0.0979       10.1855       -5.7703        2.1307       10.8853       -4.1283        1.0649       10.8756        4.4807        1.9956        6.9195       -3.3237        1.6040     
       1.4000        8.5238       -7.3008       -0.3770       10.8332       -4.6349        1.7131       12.1108       -4.8969        1.1674       10.6947        3.9128        1.6159        8.4642       -2.8396        0.9717     
       1.4500        8.8623       -7.0775       -0.9606       11.0740       -3.6287        1.5952       11.4015       -5.6323        1.0211       10.5890        3.2867        1.8309        9.5736       -0.5216        0.7578     
       1.5000        8.9728       -7.6597       -1.1552       10.7549       -4.2620        1.7992       10.7991       -5.3671        2.0018        9.5452        2.8431        1.5174       10.6925       -0.3945        0.5945     
       1.5500        8.8930       -7.7153       -1.7600       10.7559       -5.3923        1.5490       10.0907       -5.4767        1.8856       10.2371        3.6055        1.6828       10.8529       -0.9786        1.0433     
       1.6000        8.1438       -7.3152       -1.3176       11.2665       -5.4384        1.8053       10.3574       -5.0149        2.0594        9.6361        3.1687        1.3117       10.7002       -0.6667        0.8452     
       1.6500        8.1903       -6.4505       -1.0248       11.5024       -5.7717        2.0776       11.9254       -4.4893        2.8001        9.9311        2.9386        1.3768       10.7060       -0.7470        0.8856     
       1.7000        9.0474       -6.7787       -0.8811       11.3869       -6.0596        1.5911       12.0853       -4.2717        4.3402        9.8545        2.1151        1.6933       10.7079       -0.8640        1.3663     
       1.7500       10.0716       -8.2431       -1.1994       11.3583       -6.2625        1.4395       11.0410       -4.7577        3.0154        9.6239        2.1524        1.4212       10.3019       -0.8535        0.4244     
       1.8000       10.3520       -8.2542       -1.4154       10.8857       -6.4505        1.4755       12.1790       -6.3834        3.3937       10.0146        2.5972        1.2509        9.5056       -0.0165       -0.3471     
       1.8500       10.2673       -8.4203       -0.8290       11.2969       -5.1986        1.5565       11.6385       -6.3633        3.2360        9.8851        2.9320        1.7049        9.8463        0.3261       -1.3010     
       1.9000        9.9709       -8.1295       -0.9342       11.0247       -5.4012        1.7529        9.7081       -6.9237        2.1064        9.9010        2.3647        1.0849       10.2883       -0.1628       -0.7578     
       1.9500        9.5836       -7.5340       -0.4032       11.1866       -6.0114        1.6810        9.7360       -7.2981        0.1954       10.0995        1.7221        1.0449       10.7854       -1.2740       -0.1517     
       2.0000        9.5896       -7.2660        0.5083       11.2579       -6.3094        2.0051       11.3014       -5.7867        0.2450        9.9340        1.9320        1.1467       11.1319       -1.6288       -0.3444     
       2.0500        9.3882       -6.8663        0.8786       11.3524       -6.3428        1.7095       11.2813       -6.4390       -1.7085        9.5712        2.6001        1.2784       11.2306       -1.7141        0.1113     
       2.1000        8.7823       -6.7390        1.5286       10.9909       -6.1085        1.5209       11.4142       -6.7184       -1.8720        9.4923        2.8418        1.5547       11.2806       -1.3214       -0.5971     
       2.1500        8.9461       -6.7526        1.5970       11.3461       -6.2745        1.5290       13.2924       -4.9391       -0.6849        9.5288        3.3245        0.9158       10.8063       -1.1277       -1.2120     
       2.2000        8.9624       -6.6657        1.6980       11.1410       -6.3087        1.6787       13.4706       -5.0622       -0.6158       10.1418        1.8111        0.8268       11.1688       -0.9472        1.1495     
       2.2500        8.8499       -6.0401        2.1428       11.4928       -5.4539        2.2674       12.8181       -4.6727       -1.2197       10.2068        1.6660        1.2006       11.4231        0.4246        1.3627     
       2.3000        9.1016       -5.9852        1.9954       11.3350       -5.4306        2.0391       12.0135       -5.0135       -0.8402       11.1153        1.2957        1.1267       10.9777        0.8571        1.3400     
       2.3500        9.1675       -5.7344        2.0088       11.4377       -5.2459        1.8240       11.4657       -6.7320        0.4036       10.6081        1.8950        0.7705       11.2355        0.5694        1.5834     

[*** lines skipped  ***]

     599.6000       21.6444        0.7256       -0.5400       20.4558        0.5259        0.9114       19.1770       -0.8751        0.3857       24.4937       -6.3154       -4.5203       21.0207       -4.2703       -2.0237     
     599.6500       22.1481        1.2154        0.0964       20.6350        1.5186       -0.9619       19.2215       -1.6973       -0.6734       25.4836       -6.1009       -4.3497       21.4399       -3.2808       -1.7420     
     599.7000       21.2232        1.4231        0.6101       20.7161        1.5255       -0.1667       19.8549       -2.0380        0.0898       24.9724       -5.9289       -4.3457       20.6534       -3.4699       -2.7933     
     599.7500       21.6185        1.3266        0.5301       20.7629        1.8099        0.4765       19.4575       -1.3570        0.2398       24.8527       -5.4890       -4.7523       20.1542       -3.2187       -2.3682     
     599.8000       20.6428        2.2662        0.6105       20.6605        2.0787        0.8918       19.3609       -1.1687       -1.1169       24.2970       -5.2672       -4.9008       19.5841       -3.2314       -3.0080     
     599.8500       20.0781        2.4219        1.1325       20.0819        2.0141        1.2528       19.7549       -0.9027        0.0447       24.7932       -5.3731       -5.1058       20.8291       -3.4064       -2.4940     
     599.9000       19.9940        1.8457        1.7090       20.2872        2.2371        1.4736       19.2907        0.3054        0.9823       24.2658       -6.3314       -5.0125       21.3521       -3.2908       -1.7865     
     599.9500       20.6705        2.1299        2.4844       20.4711        2.0164        1.8634       19.2943       -1.0680       -0.8599       25.2163       -6.0627       -4.7138       21.4276       -2.9413       -1.3921     
