--------- AeroDyn v14.04.* INPUT FILE -------------------------------------------------------------------------
AOC aerodynamic parameters for FAST Certification Test #6.
"STEADY"      StallMod     - Dynamic stall included [BEDDOES or STEADY] (unquoted string)
"NO_CM"       UseCm        - Use aerodynamic pitching moment model? [USE_CM or NO_CM] (unquoted string)
"EQUIL"       InfModel     - Inflow model [DYNIN or EQUIL] (unquoted string)
"SWIRL"       IndModel     - Induction-factor model [NONE or WAKE or SWIRL] (unquoted string)
      0.005   AToler       - Induction-factor tolerance (convergence criteria) (-)
"PRANDtl"     TLModel      - Tip-loss model (EQUIL only) [PRANDtl, GTECH, or NONE] (unquoted string)
"PRANDtl"     HLModel      - Hub-loss model (EQUIL only) [PRANdtl or NONE] (unquoted string)
        0.3   TwrShad      - Tower-shadow velocity deficit (-)
        0.2   ShadHWid     - Tower-shadow half width (m)
      1.341   T_Shad_Refpt - Tower-shadow reference point (m)
     0.9526   AirDens      - Air density (kg/m^3)
 1.4639E-05   KinVisc      - Kinematic air viscosity [CURRENTLY IGNORED] (m^2/sec)
      0.005   DTAero       - Time interval for aerodynamic calculations (sec)
          5   NumFoil      - Number of airfoil files (-)
"AeroData/S814_1.dat"    FoilNm      - Names of the airfoil files [NumFoil lines] (quoted strings)
"AeroData/S814_15.dat"
"AeroData/S812_15.dat"
"AeroData/S812_2.dat"
"AeroData/S813_15.dat"
         10   BldNodes    - Number of blade nodes used for analysis (-)
RNodes         AeroTwst       DRNodes        Chord          NFoil          PrnElm
5.1500000E-01  7.6900000E+00  4.7000000E-01  4.9400000E-01          1      NOPRINT 
1.1240000E+00  5.0400000E+00  7.4800000E-01  5.7900000E-01          1      NOPRINT 
1.8740000E+00  4.6000000E+00  7.5200000E-01  6.8000000E-01          1      NOPRINT 
2.6240000E+00  4.2600000E+00  7.4800000E-01  7.4400000E-01          1      NOPRINT 
3.3740000E+00  3.8500000E+00  7.5200000E-01  7.3800000E-01          2      NOPRINT 
4.1200000E+00  3.1500000E+00  7.4000000E-01  6.7700000E-01          2      NOPRINT 
4.8700000E+00  2.4500000E+00  7.6000000E-01  6.1600000E-01          3      NOPRINT 
5.6200000E+00  1.7500000E+00  7.4000000E-01  5.5800000E-01          3      NOPRINT 
6.3700000E+00  1.0500000E+00  7.6000000E-01  4.9700000E-01          5      NOPRINT 
7.1200000E+00  3.5000000E-01  7.4000000E-01  4.3600000E-01          5      NOPRINT 


