###################################################################################################################################
# Registry for WAMIT2 in the FAST Modularization Framework
# This Registry file is used to create MODULE WAMIT2  which contains all of the user-defined types needed in WAMIT2.
# It also contains copy, destroy, pack,  and unpack routines associated with each defined data types.
# See NWTC Programmer's Handbook for further information on the format/contents of this file.
#
# Entries are of the form
# <keyword>         <ModuleName/ModName>          <TypeName>          <FieldType>         <FieldName>         <Dims>    <IO>      <DNAME>   <DESCRIP> <UNITS>
#
# Use ^ as a shortcut for the value in the same column from the previous line.
###################################################################################################################################

# ...... Include files (definitions from NWTC Library) ............................................................................
# make sure that the file name does not have any trailing white spaces!
include   Registry_NWTC_Library.txt

param       WAMIT2/WAMIT2     unused            INTEGER              MaxOutputs        -        33       -        ""                                                    -

#InitInputType -- used for passing stuff into the Init routine.
typedef     WAMIT2/WAMIT2     InitInputType     LOGICAL              HasWAMIT          -        -        -        ".TRUE. if using WAMIT model, .FALSE. otherwise"      -
typedef     ^                 ^                 CHARACTER(1024)      WAMITFile         -        -        -        "Root of the filename for WAMIT2 outputs"             -
typedef     ^                 ^                 INTEGER              UnSum             -        -        -        "The unit number for the HydroDyn summary file" -

typedef     ^                 ^                 INTEGER              NStepWave         -        -        -        "Total number of frequency components = total number of time steps in the incident wave"    -
typedef     ^                 ^                 INTEGER              NStepWave2        -        -        -        "NStepWave / 2"                                       -
typedef     ^                 ^                 ReKi                 WaveDOmega        -        -        -        "Frequency step for incident wave calculations"       (rad/s)
typedef     ^                 ^                 ReKi                 WtrDens           -        -        -        "Water density"   (kg/m^3)

typedef     ^                 ^                 ReKi                 WaveElevC0        {:}{:}   -        -        "Discrete Fourier transform of the instantaneous elevation of incident waves at the platform reference point.  First column is real part, second column is imaginary part"   (meters)
typedef     ^                 ^                 ReKi                 WaveDir           -        -        -        "Mean incident wave propagation heading direction"    (degrees)
typedef     ^                 ^                 ReKi                 WaveDirArr        {:}      -        -        "Wave direction assigned to each frequency"    (degrees)
typedef     ^                 ^                 ReKi                 WaveTime          {:}      -        -        "Simulation times at which the instantaneous second order loads associated with the incident waves are determined"   sec

typedef     ^                 ^                 CHARACTER(10)        OutList           {27}     -        -        "This should really be dimensioned with MaxOutPts"    -
typedef     ^                 ^                 LOGICAL              OutAll            -        -        -        ""                                                    -
typedef     ^                 ^                 INTEGER              NumOuts           -        -        -        ""                                                    -
typedef     ^                 ^                 INTEGER              WaveMod           -        -        -        "The wave model to use.  This is for error checking -- ideally this would be done in the main calling routine, not here." -

typedef     ^                 ^                 LOGICAL              PtfmSgF2          -        -        -        "Supplied by Driver:  Platform horizontal surge translation force (flag)"      -
typedef     ^                 ^                 LOGICAL              PtfmSwF2          -        -        -        "Supplied by Driver:  Platform horizontal sway  translation force (flag)"      -
typedef     ^                 ^                 LOGICAL              PtfmHvF2          -        -        -        "Supplied by Driver:  Platform vertical   heave translation force (flag)"      -
typedef     ^                 ^                 LOGICAL              PtfmRF2           -        -        -        "Supplied by Driver:  Platform roll  tilt rotation force (flag)"               -
typedef     ^                 ^                 LOGICAL              PtfmPF2           -        -        -        "Supplied by Driver:  Platform pitch tilt rotation force (flag)"               -
typedef     ^                 ^                 LOGICAL              PtfmYF2           -        -        -        "Supplied by Driver:  Platform yaw        rotation force (flag)"               -
#typedef     ^                 ^                 CHARACTER(80)        PtfmRF2Chr        -        -        -        "Platform roll  tilt rotation force (flag) or DEFAULT"                                    -
#typedef     ^                 ^                 CHARACTER(80)        PtfmHvF2Chr       -        -        -        "Platform vertical heave   translation force (flag) or DEFAULT"                           -
#typedef     ^                 ^                 CHARACTER(80)        PtfmSgF2Chr       -        -        -        "Platform horizontal surge translation force (flag) or DEFAULT"                           -
#typedef     ^                 ^                 CHARACTER(80)        PtfmSwF2Chr       -        -        -        "Platform horizontal sway  translation force (flag) or DEFAULT"                           -
#typedef     ^                 ^                 CHARACTER(80)        PtfmPF2Chr        -        -        -        "Platform pitch tilt rotation force (flag) or DEFAULT"                                    -
#typedef     ^                 ^                 CHARACTER(80)        PtfmYF2Chr        -        -        -        "Platform yaw        rotation force (flag) or DEFAULT"                                    -


#[note: only one of MnDriff / NewmanApp / DiffQTF can be non-zero
typedef     ^                 ^                 INTEGER              MnDrift           -        -        -        "Calculate the mean drift force {0: no mean drift; [7,8,9,10,11, or 12]: WAMIT file to use}"    -
typedef     ^                 ^                 INTEGER              NewmanApp         -        -        -        "Slow drift forces computed with Newman approximation from WAMIT file:{0: No slow drift; [7,8,9,10,11, or 12]: WAMIT file to use}"  -
typedef     ^                 ^                 INTEGER              DiffQTF           -        -        -        "Full Difference-Frequency forces computed with full QTF's from WAMIT file: {0: No diff-QTF; [10,11, or 12]: WAMIT file to use}"  -
typedef     ^                 ^                 INTEGER              SumQTF            -        -        -        "Full Sum-Frequency forces computed with full QTF's from WAMIT file: {0: No sum-QTF; [10,11, or 12]: WAMIT file to use}"  -
typedef     ^                 ^                 LOGICAL              MnDriftF          -        -        -        "Flag indicating mean drift force should be calculated"        -
typedef     ^                 ^                 LOGICAL              NewmanAppF        -        -        -        "Flag indicating Newman approximation should be calculated"    -
typedef     ^                 ^                 LOGICAL              DiffQTFF          -        -        -        "Flag indicating the full difference QTF should be calculated" -
typedef     ^                 ^                 LOGICAL              SumQTFF           -        -        -        "Flag indicating the full    sum     QTF should be calculated" -
typedef     ^                 ^                 ReKi                 WvLowCOffD        -        -        -        "Minimum frequency used in the difference methods [Ignored if all difference methods = 0]"   (rad/s)
typedef     ^                 ^                 ReKi                 WvHiCOffD         -        -        -        "Maximum frequency used in the difference methods [Ignored if all difference methods = 0]"   (rad/s)
typedef     ^                 ^                 ReKi                 WvLowCOffS        -        -        -        "Minimum frequency used in the sum-QTF method     [Ignored if SumQTF = 0]"                   (rad/s)
typedef     ^                 ^                 ReKi                 WvHiCOffS         -        -        -        "Maximum frequency used in the sum-QTF method     [Ignored if SumQTF = 0]"                   (rad/s)



# Define outputs from the initialization routine here:
#
#typedef    ^                 InitOutputType    MeshType             OutputMesh        -        -        -        ""    -
typedef     ^                 InitOutputType    CHARACTER(10)        WriteOutputHdr    {:}      -        -        ""    -
typedef     ^                 ^                 CHARACTER(10)        WriteOutputUnt    {:}      -        -        ""    -



# ..... States ....................................................................................................................
# Define continuous (differentiable) states here:
typedef     ^              ContinuousStateType  ReKi                 DummyContState    -        -        -        "Remove this variable if you have continuous states"  -


# Define discrete (nondifferentiable) states here:
typedef     ^              DiscreteStateType    ReKi                 DummyDiscState    -        -        -        "Remove this variable if you have discrete states" -


# Define constraint states here:
typedef     ^              ConstraintStateType  ReKi                 DummyConstrState  -        -        -        "Remove this variable if you have constraint states"  -



# Define any data that are not considered actual states here:
#   e.g. data used only for efficiency purposes (indices for searching in an array,  copies of previous calculations of output at a given time, etc.)
#
typedef     ^                 OtherStateType    INTEGER              LastIndWave       -        -        -        ""                                                    -
typedef     ^                 ^                 ReKi                 F_Waves           {6}      -        -        "Forces and moments time array"                       -



# ..... Parameters ................................................................................................................
# Define parameters here:
# Time step for integration of continuous states (if a fixed-step integrator is used) and update of discrete states:
#
typedef     ^                 ParameterType     ReKi                 WaveTime          {:}      -        -        "Simulation times at which the instantaneous second order loads associated with the incident waves are determined"   sec
typedef     ^                 ^                 DbKi                 DT                -        -        -        ""                                                    -

typedef     ^                 ^                 OutParmType          OutParam          {:}      -        -        ""                                                    -
typedef     ^                 ^                 INTEGER              NumOuts           -        -        -        ""                                                    -
typedef     ^                 ^                 INTEGER              NumOutAll         -        -        -        ""                                                    -
!typedef     ^                 ^                 CHARACTER(20)        OutFmt            -        -        -        ""                                                    -
!typedef     ^                 ^                 CHARACTER(20)        OutSFmt           -        -        -        ""                                                    -
!typedef     ^                 ^                 CHARACTER(10)        Delim             -        -        -        ""                                                    -
typedef     ^                 ^                 INTEGER              UnOutFile         -        -        -        ""                                                    -

#NOTE: We might want to keep the WaveMultiDir in parameters instead.  It is also that we don't even need it here.
typedef     ^                 ^                 LOGICAL              WaveMultiDir      -        -        -        "Indicates multidirectional waves"                    -

#Flags set for dimensions to use with each method (MnDrift, NewmanApp, etc). These are stored by method because .8 files that can be used in MnDrift or NewmanApp don't have some of the dimensions.
typedef     ^                 ^                 LOGICAL              MnDriftDims       {6}      -        -        "Flags for which dimensions to calculate in MnDrift   calculations"  -
typedef     ^                 ^                 LOGICAL              NewmanAppDims     {6}      -        -        "Flags for which dimensions to calculate in NewmanApp calculations"  -
typedef     ^                 ^                 LOGICAL              DiffQTFDims       {6}      -        -        "Flags for which dimensions to calculate in DiffQTF   calculations"  -
typedef     ^                 ^                 LOGICAL              SumQTFDims        {6}      -        -        "Flags for which dimensions to calculate in SumQTF    calculations"  -


#[note: only one of MnDriff / NewmanApp / DiffQTF should be non-zero --> this should be checked at initialization]
typedef     ^                 ^                 INTEGER              MnDrift           -        -        -        "Calculate the mean drift force {0: no mean drift; [7,8,9,10,11, or 12]: WAMIT file to use}"    -
typedef     ^                 ^                 INTEGER              NewmanApp         -        -        -        "Slow drift forces computed with Newman approximation from WAMIT file:{0: No slow drift; [7,8,9,10,11, or 12]: WAMIT file to use}"  -
typedef     ^                 ^                 INTEGER              DiffQTF           -        -        -        "Full Difference-Frequency forces computed with full QTF's from WAMIT file: {0: No diff-QTF; [10,11, or 12]: WAMIT file to use}"  -
typedef     ^                 ^                 INTEGER              SumQTF            -        -        -        "Full Sum-Frequency forces computed with full QTF's from WAMIT file: {0: No sum-QTF; [10,11, or 12]: WAMIT file to use}"  -
typedef     ^                 ^                 LOGICAL              MnDriftF          -        -        -        "Flag indicating mean drift force should be calculated"        -
typedef     ^                 ^                 LOGICAL              NewmanAppF        -        -        -        "Flag indicating Newman approximation should be calculated"    -
typedef     ^                 ^                 LOGICAL              DiffQTFF          -        -        -        "Flag indicating the full difference QTF should be calculated" -
typedef     ^                 ^                 LOGICAL              SumQTFF           -        -        -        "Flag indicating the full    sum     QTF should be calculated" -
typedef     ^                 ^                 ReKi                 WvLowCOffD        -        -        -        "Minimum frequency used in the difference methods [Ignored if all difference methods = 0]"   (rad/s)
typedef     ^                 ^                 ReKi                 WvHiCOffD         -        -        -        "Maximum frequency used in the difference methods [Ignored if all difference methods = 0]"   (rad/s)
typedef     ^                 ^                 ReKi                 WvLowCOffS        -        -        -        "Minimum frequency used in the sum-QTF method     [Ignored if SumQTF = 0]"                   (rad/s)
typedef     ^                 ^                 ReKi                 WvHiCOffS         -        -        -        "Maximum frequency used in the sum-QTF method     [Ignored if SumQTF = 0]"                   (rad/s)
typedef     ^                 ^                 INTEGER              NStepWave         -        -        -        "Total number of frequency components = total number of time steps in the incident wave"    -
typedef     ^                 ^                 INTEGER              NStepWave2        -        -        -        "NStepWave / 2"                                       -
typedef     ^                 ^                 ReKi                 WaveDOmega        -        -        -        "Frequency step for incident wave calculations"       rad/s

typedef     ^                 ^                 CHARACTER(1028)      MnDrift_Filename  -        -        -        "Full path and filename for MnDrift   file (including extension)"   -
typedef     ^                 ^                 CHARACTER(1028)     NewmanApp_Filename -        -        -        "Full path and filename for NewmanApp file (including extension)"   -
typedef     ^                 ^                 CHARACTER(1028)      DiffQTF_Filename  -        -        -        "Full path and filename for DiffQTF   file (including extension)"   -
typedef     ^                 ^                 CHARACTER(1028)      SumQTF_Filename   -        -        -        "Full path and filename for SumQTF    file (including extension)"   -




# ..... Inputs ....................................................................................................................
# Define inputs that are contained on the mesh here:
#
typedef     ^                 InputType         MeshType             Mesh              -        -        -        "Displacements at the platform reference point in the inertial frame" -



# ..... Outputs ...................................................................................................................
# Define outputs that are contained on the mesh here:
typedef     ^                 OutputType        MeshType             Mesh              -        -        -        "Loads at the platform reference point in the inertial frame" -
typedef     ^                 ^                 ReKi                 WriteOutput       {:}      -        -        ""  -
